9903816
  -OEChem-05162308402D

 36 37  0     1  0  0  0  0  0999 V2000
    6.0010    1.1979    0.0000 O   0  0  0  0  0  0  0  0  0  0  0  0
    7.7611    2.4766    0.0000 O   0  0  0  0  0  0  0  0  0  0  0  0
    7.0888    4.5457    0.0000 O   0  0  0  0  0  0  0  0  0  0  0  0
    4.2690    1.1979    0.0000 O   0  0  0  0  0  0  0  0  0  0  0  0
    2.5369   -3.8021    0.0000 O   0  0  0  0  0  0  0  0  0  0  0  0
    4.2690   -4.8021    0.0000 O   0  0  0  0  0  0  0  0  0  0  0  0
    6.0010    2.1979    0.0000 C   0  0  1  0  0  0  0  0  0  0  0  0
    6.8100    2.7857    0.0000 C   0  0  1  0  0  0  0  0  0  0  0  0
    6.5010    3.7367    0.0000 C   0  0  1  0  0  0  0  0  0  0  0  0
    5.1920    2.7857    0.0000 C   0  0  0  0  0  0  0  0  0  0  0  0
    5.5010    3.7367    0.0000 C   0  0  0  0  0  0  0  0  0  0  0  0
    5.1350    0.6979    0.0000 C   0  0  0  0  0  0  0  0  0  0  0  0
    5.1350   -0.3021    0.0000 C   0  0  0  0  0  0  0  0  0  0  0  0
    4.2690   -0.8021    0.0000 C   0  0  0  0  0  0  0  0  0  0  0  0
    4.2690   -1.8021    0.0000 C   0  0  0  0  0  0  0  0  0  0  0  0
    3.4030   -2.3021    0.0000 C   0  0  0  0  0  0  0  0  0  0  0  0
    5.1350   -2.3021    0.0000 C   0  0  0  0  0  0  0  0  0  0  0  0
    3.4030   -3.3021    0.0000 C   0  0  0  0  0  0  0  0  0  0  0  0
    5.1350   -3.3021    0.0000 C   0  0  0  0  0  0  0  0  0  0  0  0
    4.2690   -3.8021    0.0000 C   0  0  0  0  0  0  0  0  0  0  0  0
    6.5535    1.9164    0.0000 H   0  0  0  0  0  0  0  0  0  0  0  0
    6.9070    2.1733    0.0000 H   0  0  0  0  0  0  0  0  0  0  0  0
    7.1134    3.6397    0.0000 H   0  0  0  0  0  0  0  0  0  0  0  0
    4.6256    3.0378    0.0000 H   0  0  0  0  0  0  0  0  0  0  0  0
    4.8820    2.2487    0.0000 H   0  0  0  0  0  0  0  0  0  0  0  0
    5.5658    4.3533    0.0000 H   0  0  0  0  0  0  0  0  0  0  0  0
    4.8946    3.8656    0.0000 H   0  0  0  0  0  0  0  0  0  0  0  0
    8.2219    2.8915    0.0000 H   0  0  0  0  0  0  0  0  0  0  0  0
    6.8366    5.1121    0.0000 H   0  0  0  0  0  0  0  0  0  0  0  0
    5.6720   -0.6121    0.0000 H   0  0  0  0  0  0  0  0  0  0  0  0
    3.7320   -0.4921    0.0000 H   0  0  0  0  0  0  0  0  0  0  0  0
    2.8660   -1.9921    0.0000 H   0  0  0  0  0  0  0  0  0  0  0  0
    5.6720   -1.9921    0.0000 H   0  0  0  0  0  0  0  0  0  0  0  0
    5.6720   -3.6121    0.0000 H   0  0  0  0  0  0  0  0  0  0  0  0
    2.0000   -3.4921    0.0000 H   0  0  0  0  0  0  0  0  0  0  0  0
    4.8059   -5.1121    0.0000 H   0  0  0  0  0  0  0  0  0  0  0  0
  7  1  1  6  0  0  0
  1 12  1  0  0  0  0
  8  2  1  1  0  0  0
  2 28  1  0  0  0  0
  9  3  1  1  0  0  0
  3 29  1  0  0  0  0
  4 12  2  0  0  0  0
  5 18  1  0  0  0  0
  5 35  1  0  0  0  0
  6 20  1  0  0  0  0
  6 36  1  0  0  0  0
  7  8  1  0  0  0  0
  7 10  1  0  0  0  0
  7 21  1  0  0  0  0
  8  9  1  0  0  0  0
  8 22  1  0  0  0  0
  9 11  1  0  0  0  0
  9 23  1  0  0  0  0
 10 11  1  0  0  0  0
 10 24  1  0  0  0  0
 10 25  1  0  0  0  0
 11 26  1  0  0  0  0
 11 27  1  0  0  0  0
 12 13  1  0  0  0  0
 13 14  2  0  0  0  0
 13 30  1  0  0  0  0
 14 15  1  0  0  0  0
 14 31  1  0  0  0  0
 15 16  2  0  0  0  0
 15 17  1  0  0  0  0
 16 18  1  0  0  0  0
 16 32  1  0  0  0  0
 17 19  2  0  0  0  0
 17 33  1  0  0  0  0
 18 20  2  0  0  0  0
 19 20  1  0  0  0  0
 19 34  1  0  0  0  0
M  END
> <PUBCHEM_COMPOUND_CID>
9903816

> <PUBCHEM_COMPOUND_CANONICALIZED>
1

> <PUBCHEM_CACTVS_COMPLEXITY>
369

> <PUBCHEM_CACTVS_HBOND_ACCEPTOR>
6

> <PUBCHEM_CACTVS_HBOND_DONOR>
4

> <PUBCHEM_CACTVS_ROTATABLE_BOND>
4

> <PUBCHEM_CACTVS_SUBSKEYS>
AAADceBwOAAAAAAAAAAAAAAAAAAAAYAAAAAwAAAAAAAAAAABAAAAGgAACAAADBSgmAIwDoAABgCIAiDSCAACAAAgIAAIiAAGiMgJNiKCMRKCcAElwBELuYfA4BgOIAABAAAAQABAAAIAAACAAAQAACAAAA==

> <PUBCHEM_IUPAC_OPENEYE_NAME>
[(1R,2R,3R)-2,3-dihydroxycyclopentyl] (E)-3-(3,4-dihydroxyphenyl)prop-2-enoate

> <PUBCHEM_IUPAC_CAS_NAME>
(E)-3-(3,4-dihydroxyphenyl)-2-propenoic acid [(1R,2R,3R)-2,3-dihydroxycyclopentyl] ester

> <PUBCHEM_IUPAC_NAME_MARKUP>
[(1<I>R</I>,2<I>R</I>,3<I>R</I>)-2,3-dihydroxycyclopentyl] (<I>E</I>)-3-(3,4-dihydroxyphenyl)prop-2-enoate

> <PUBCHEM_IUPAC_NAME>
[(1R,2R,3R)-2,3-dihydroxycyclopentyl] (E)-3-(3,4-dihydroxyphenyl)prop-2-enoate

> <PUBCHEM_IUPAC_SYSTEMATIC_NAME>
[(1R,2R,3R)-2,3-bis(oxidanyl)cyclopentyl] (E)-3-[3,4-bis(oxidanyl)phenyl]prop-2-enoate

> <PUBCHEM_IUPAC_TRADITIONAL_NAME>
(E)-3-(3,4-dihydroxyphenyl)acrylic acid [(1R,2R,3R)-2,3-dihydroxycyclopentyl] ester

> <PUBCHEM_IUPAC_INCHI>
InChI=1S/C14H16O6/c15-9-3-1-8(7-11(9)17)2-6-13(18)20-12-5-4-10(16)14(12)19/h1-3,6-7,10,12,14-17,19H,4-5H2/b6-2+/t10-,12-,14-/m1/s1

> <PUBCHEM_IUPAC_INCHIKEY>
RXKJUJBLHWQKCA-ZIEFYORRSA-N

> <PUBCHEM_XLOGP3_AA>
0.8

> <PUBCHEM_EXACT_MASS>
280.09468823

> <PUBCHEM_MOLECULAR_FORMULA>
C14H16O6

> <PUBCHEM_MOLECULAR_WEIGHT>
280.27

> <PUBCHEM_OPENEYE_CAN_SMILES>
C1CC(C(C1O)O)OC(=O)C=CC2=CC(=C(C=C2)O)O

> <PUBCHEM_OPENEYE_ISO_SMILES>
C1C[C@H]([C@@H]([C@@H]1O)O)OC(=O)/C=C/C2=CC(=C(C=C2)O)O

> <PUBCHEM_CACTVS_TPSA>
107

> <PUBCHEM_MONOISOTOPIC_WEIGHT>
280.09468823

> <PUBCHEM_TOTAL_CHARGE>
0

> <PUBCHEM_HEAVY_ATOM_COUNT>
20

> <PUBCHEM_ATOM_DEF_STEREO_COUNT>
3

> <PUBCHEM_ATOM_UDEF_STEREO_COUNT>
0

> <PUBCHEM_BOND_DEF_STEREO_COUNT>
1

> <PUBCHEM_BOND_UDEF_STEREO_COUNT>
0

> <PUBCHEM_ISOTOPIC_ATOM_COUNT>
0

> <PUBCHEM_COMPONENT_COUNT>
1

> <PUBCHEM_CACTVS_TAUTO_COUNT>
-1

> <PUBCHEM_COORDINATE_TYPE>
1
5
255

> <PUBCHEM_BONDANNOTATIONS>
7  1  6
15  16  8
15  17  8
16  18  8
17  19  8
18  20  8
19  20  8
8  2  5
9  3  5

$$$$
