44566824
  -OEChem-05162308462D

 68 72  0     1  0  0  0  0  0999 V2000
    5.7434   -3.0871    0.0000 O   0  0  0  0  0  0  0  0  0  0  0  0
    4.4107    1.5942    0.0000 O   0  0  0  0  0  0  0  0  0  0  0  0
    4.4950   -3.2556    0.0000 O   0  0  0  0  0  0  0  0  0  0  0  0
    6.2434   -3.2210    0.0000 O   0  0  0  0  0  0  0  0  0  0  0  0
    3.4774    3.2460    0.0000 O   0  0  0  0  0  0  0  0  0  0  0  0
    2.0000    4.2322    0.0000 O   0  0  0  0  0  0  0  0  0  0  0  0
    2.7630   -3.2757    0.0000 O   0  0  0  0  0  0  0  0  0  0  0  0
    5.3774   -4.7210    0.0000 O   0  0  0  0  0  0  0  0  0  0  0  0
    5.3774   -1.7210    0.0000 C   0  0  2  0  0  0  0  0  0  0  0  0
    5.3774   -0.7210    0.0000 C   0  0  1  0  0  0  0  0  0  0  0  0
    6.2434   -2.2210    0.0000 C   0  0  1  0  0  0  0  0  0  0  0  0
    4.4834   -0.1864    0.0000 C   0  0  2  0  0  0  0  0  0  0  0  0
    4.4834   -2.2557    0.0000 C   0  0  2  0  0  0  0  0  0  0  0  0
    3.5773   -0.7002    0.0000 C   0  0  1  0  0  0  0  0  0  0  0  0
    6.2434   -0.2210    0.0000 C   0  0  0  0  0  0  0  0  0  0  0  0
    7.1094   -1.7210    0.0000 C   0  0  0  0  0  0  0  0  0  0  0  0
    6.7434   -3.0871    0.0000 C   0  0  0  0  0  0  0  0  0  0  0  0
    3.5773   -1.7418    0.0000 C   0  0  0  0  0  0  0  0  0  0  0  0
    3.9935    0.6854    0.0000 C   0  0  2  0  0  0  0  0  0  0  0  0
    7.1094   -0.7210    0.0000 C   0  0  0  0  0  0  0  0  0  0  0  0
    5.3774   -2.7210    0.0000 C   0  0  0  0  0  0  0  0  0  0  0  0
    4.9934    0.6738    0.0000 C   0  0  0  0  0  0  0  0  0  0  0  0
    3.0002    0.8014    0.0000 C   0  0  0  0  0  0  0  0  0  0  0  0
    2.8036    1.7819    0.0000 C   0  0  2  0  0  0  0  0  0  0  0  0
    2.7132   -0.1969    0.0000 C   0  0  0  0  0  0  0  0  0  0  0  0
    3.6754    2.2718    0.0000 C   0  0  2  0  0  0  0  0  0  0  0  0
    2.0744    2.4574    0.0000 C   0  0  0  0  0  0  0  0  0  0  0  0
    2.4900    3.3605    0.0000 C   0  0  1  0  0  0  0  0  0  0  0  0
    3.6348   -3.7656    0.0000 C   0  0  0  0  0  0  0  0  0  0  0  0
    6.2434   -4.2210    0.0000 C   0  0  0  0  0  0  0  0  0  0  0  0
    3.6464   -4.7656    0.0000 C   0  0  0  0  0  0  0  0  0  0  0  0
    7.1094   -4.7210    0.0000 C   0  0  0  0  0  0  0  0  0  0  0  0
    5.3839    0.1289    0.0000 H   0  0  0  0  0  0  0  0  0  0  0  0
    3.9495   -2.5709    0.0000 H   0  0  0  0  0  0  0  0  0  0  0  0
    3.5809   -0.0802    0.0000 H   0  0  0  0  0  0  0  0  0  0  0  0
    6.6419    0.2539    0.0000 H   0  0  0  0  0  0  0  0  0  0  0  0
    5.8448    0.2539    0.0000 H   0  0  0  0  0  0  0  0  0  0  0  0
    7.3214   -2.3037    0.0000 H   0  0  0  0  0  0  0  0  0  0  0  0
    7.7200   -1.6134    0.0000 H   0  0  0  0  0  0  0  0  0  0  0  0
    6.8510   -3.6976    0.0000 H   0  0  0  0  0  0  0  0  0  0  0  0
    7.3260   -2.8750    0.0000 H   0  0  0  0  0  0  0  0  0  0  0  0
    2.9665   -1.6358    0.0000 H   0  0  0  0  0  0  0  0  0  0  0  0
    3.3683   -2.3255    0.0000 H   0  0  0  0  0  0  0  0  0  0  0  0
    3.5223   -0.0221    0.0000 H   0  0  0  0  0  0  0  0  0  0  0  0
    7.7200   -0.8287    0.0000 H   0  0  0  0  0  0  0  0  0  0  0  0
    7.3214   -0.1384    0.0000 H   0  0  0  0  0  0  0  0  0  0  0  0
    4.7668   -2.6134    0.0000 H   0  0  0  0  0  0  0  0  0  0  0  0
    5.1653   -3.3036    0.0000 H   0  0  0  0  0  0  0  0  0  0  0  0
    5.5267    0.3576    0.0000 H   0  0  0  0  0  0  0  0  0  0  0  0
    5.3096    1.2071    0.0000 H   0  0  0  0  0  0  0  0  0  0  0  0
    4.4601    0.9900    0.0000 H   0  0  0  0  0  0  0  0  0  0  0  0
    2.3829    0.7437    0.0000 H   0  0  0  0  0  0  0  0  0  0  0  0
    2.9930    0.1814    0.0000 H   0  0  0  0  0  0  0  0  0  0  0  0
    2.0621    1.3664    0.0000 H   0  0  0  0  0  0  0  0  0  0  0  0
    3.0253    0.3388    0.0000 H   0  0  0  0  0  0  0  0  0  0  0  0
    2.1775    0.1152    0.0000 H   0  0  0  0  0  0  0  0  0  0  0  0
    2.4012   -0.7326    0.0000 H   0  0  0  0  0  0  0  0  0  0  0  0
    4.4158    2.6892    0.0000 H   0  0  0  0  0  0  0  0  0  0  0  0
    1.5415    2.7744    0.0000 H   0  0  0  0  0  0  0  0  0  0  0  0
    1.7032    1.9608    0.0000 H   0  0  0  0  0  0  0  0  0  0  0  0
    1.8705    3.3355    0.0000 H   0  0  0  0  0  0  0  0  0  0  0  0
    3.0264   -4.7727    0.0000 H   0  0  0  0  0  0  0  0  0  0  0  0
    3.6535   -5.3855    0.0000 H   0  0  0  0  0  0  0  0  0  0  0  0
    4.2663   -4.7584    0.0000 H   0  0  0  0  0  0  0  0  0  0  0  0
    2.3162    4.7656    0.0000 H   0  0  0  0  0  0  0  0  0  0  0  0
    6.7994   -5.2580    0.0000 H   0  0  0  0  0  0  0  0  0  0  0  0
    7.6463   -5.0310    0.0000 H   0  0  0  0  0  0  0  0  0  0  0  0
    7.4194   -4.1841    0.0000 H   0  0  0  0  0  0  0  0  0  0  0  0
 11  1  1  1  0  0  0
  1 17  1  0  0  0  0
  2 19  1  0  0  0  0
  2 26  1  0  0  0  0
 13  3  1  1  0  0  0
  3 29  1  0  0  0  0
  4 21  1  0  0  0  0
  4 30  1  0  0  0  0
  5 26  1  0  0  0  0
  5 28  1  0  0  0  0
 28  6  1  6  0  0  0
  6 65  1  0  0  0  0
  7 29  2  0  0  0  0
  8 30  2  0  0  0  0
  9 10  1  0  0  0  0
  9 11  1  0  0  0  0
  9 13  1  0  0  0  0
  9 21  1  1  0  0  0
 10 12  1  0  0  0  0
 10 15  1  0  0  0  0
 10 33  1  6  0  0  0
 11 16  1  0  0  0  0
 11 17  1  0  0  0  0
 12 14  1  0  0  0  0
 12 19  1  0  0  0  0
 12 22  1  1  0  0  0
 13 18  1  0  0  0  0
 13 34  1  0  0  0  0
 14 18  1  0  0  0  0
 14 25  1  1  0  0  0
 14 35  1  0  0  0  0
 15 20  1  0  0  0  0
 15 36  1  0  0  0  0
 15 37  1  0  0  0  0
 16 20  1  0  0  0  0
 16 38  1  0  0  0  0
 16 39  1  0  0  0  0
 17 40  1  0  0  0  0
 17 41  1  0  0  0  0
 18 42  1  0  0  0  0
 18 43  1  0  0  0  0
 19 23  1  0  0  0  0
 19 44  1  1  0  0  0
 20 45  1  0  0  0  0
 20 46  1  0  0  0  0
 21 47  1  0  0  0  0
 21 48  1  0  0  0  0
 22 49  1  0  0  0  0
 22 50  1  0  0  0  0
 22 51  1  0  0  0  0
 23 24  1  0  0  0  0
 23 52  1  0  0  0  0
 23 53  1  0  0  0  0
 24 26  1  0  0  0  0
 24 27  1  0  0  0  0
 24 54  1  6  0  0  0
 25 55  1  0  0  0  0
 25 56  1  0  0  0  0
 25 57  1  0  0  0  0
 26 58  1  6  0  0  0
 27 28  1  0  0  0  0
 27 59  1  0  0  0  0
 27 60  1  0  0  0  0
 28 61  1  0  0  0  0
 29 31  1  0  0  0  0
 30 32  1  0  0  0  0
 31 62  1  0  0  0  0
 31 63  1  0  0  0  0
 31 64  1  0  0  0  0
 32 66  1  0  0  0  0
 32 67  1  0  0  0  0
 32 68  1  0  0  0  0
M  END
> <PUBCHEM_COMPOUND_CID>
44566824

> <PUBCHEM_COMPOUND_CANONICALIZED>
1

> <PUBCHEM_CACTVS_COMPLEXITY>
786

> <PUBCHEM_CACTVS_HBOND_ACCEPTOR>
8

> <PUBCHEM_CACTVS_HBOND_DONOR>
1

> <PUBCHEM_CACTVS_ROTATABLE_BOND>
6

> <PUBCHEM_CACTVS_SUBSKEYS>
AAADcfB4PAAAAAAAAAAAAAAAEgAAASJAAAAwYAAAAAASAADAAAAAGgAACAAAD1SwgAMCCAAABgAIAACQCAAAAAAAAAAAAAAAAAAQEAIAAAAiQAAFAAAEAAHA4PwPgAAAAAAAAADAAAYAADAAAAAAAAAAAA==

> <PUBCHEM_IUPAC_OPENEYE_NAME>
[(1S,2R,4S,4aR,5R,8aR)-1-[(2S,3aS,5R,6aR)-5-hydroxy-2,3,3a,4,5,6a-hexahydrofuro[2,3-b]furan-2-yl]-4-acetoxy-1,2-dimethyl-spiro[decalin-5,2'-oxirane]-4a-yl]methyl acetate

> <PUBCHEM_IUPAC_CAS_NAME>
acetic acid [(4R,4aR,5S,7R,8S,8aR)-8-[(2S,3aS,5R,6aR)-5-hydroxy-2,3,3a,4,5,6a-hexahydrofuro[2,3-b]furan-2-yl]-5-acetyloxy-7,8-dimethyl-4a-spiro[2,3,5,6,7,8a-hexahydro-1H-naphthalene-4,2'-oxirane]yl]methyl ester

> <PUBCHEM_IUPAC_NAME_MARKUP>
[(4<I>R</I>,4<I>a</I><I>R</I>,5<I>S</I>,7<I>R</I>,8<I>S</I>,8<I>a</I><I>R</I>)-8-[(2<I>S</I>,3<I>a</I><I>S</I>,5<I>R</I>,6<I>a</I><I>R</I>)-5-hydroxy-2,3,3<I>a</I>,4,5,6<I>a</I>-hexahydrofuro[2,3-b]furan-2-yl]-5-acetyloxy-7,8-dimethylspiro[2,3,5,6,7,8<I>a</I>-hexahydro-1<I>H</I>-naphthalene-4,2&apos;-oxirane]-4<I>a</I>-yl]methyl acetate

> <PUBCHEM_IUPAC_NAME>
[(4R,4aR,5S,7R,8S,8aR)-8-[(2S,3aS,5R,6aR)-5-hydroxy-2,3,3a,4,5,6a-hexahydrofuro[2,3-b]furan-2-yl]-5-acetyloxy-7,8-dimethylspiro[2,3,5,6,7,8a-hexahydro-1H-naphthalene-4,2'-oxirane]-4a-yl]methyl acetate

> <PUBCHEM_IUPAC_SYSTEMATIC_NAME>
[(4R,4aR,5S,7R,8S,8aR)-8-[(2S,3aS,5R,6aR)-5-oxidanyl-2,3,3a,4,5,6a-hexahydrofuro[2,3-b]furan-2-yl]-5-acetyloxy-7,8-dimethyl-spiro[2,3,5,6,7,8a-hexahydro-1H-naphthalene-4,2'-oxirane]-4a-yl]methyl ethanoate

> <PUBCHEM_IUPAC_TRADITIONAL_NAME>
acetic acid [(1S,2R,4S,4aR,5R,8aR)-1-[(2S,3aS,5R,6aR)-5-hydroxy-2,3,3a,4,5,6a-hexahydrofuro[2,3-b]furan-2-yl]-4-acetoxy-1,2-dimethyl-spiro[decalin-5,2'-oxirane]-4a-yl]methyl ester

> <PUBCHEM_IUPAC_INCHI>
InChI=1S/C24H36O8/c1-13-8-19(30-15(3)26)24(12-28-14(2)25)17(6-5-7-23(24)11-29-23)22(13,4)18-9-16-10-20(27)32-21(16)31-18/h13,16-21,27H,5-12H2,1-4H3/t13-,16+,17-,18+,19+,20-,21-,22+,23+,24+/m1/s1

> <PUBCHEM_IUPAC_INCHIKEY>
UXXDLTAQAXEQEL-MZVKURBCSA-N

> <PUBCHEM_XLOGP3_AA>
2.5

> <PUBCHEM_EXACT_MASS>
452.24101810

> <PUBCHEM_MOLECULAR_FORMULA>
C24H36O8

> <PUBCHEM_MOLECULAR_WEIGHT>
452.5

> <PUBCHEM_OPENEYE_CAN_SMILES>
CC1CC(C2(C(C1(C)C3CC4CC(OC4O3)O)CCCC25CO5)COC(=O)C)OC(=O)C

> <PUBCHEM_OPENEYE_ISO_SMILES>
C[C@@H]1C[C@@H]([C@@]2([C@@H]([C@@]1(C)[C@@H]3C[C@H]4C[C@@H](O[C@H]4O3)O)CCC[C@]25CO5)COC(=O)C)OC(=O)C

> <PUBCHEM_CACTVS_TPSA>
104

> <PUBCHEM_MONOISOTOPIC_WEIGHT>
452.24101810

> <PUBCHEM_TOTAL_CHARGE>
0

> <PUBCHEM_HEAVY_ATOM_COUNT>
32

> <PUBCHEM_ATOM_DEF_STEREO_COUNT>
10

> <PUBCHEM_ATOM_UDEF_STEREO_COUNT>
0

> <PUBCHEM_BOND_DEF_STEREO_COUNT>
0

> <PUBCHEM_BOND_UDEF_STEREO_COUNT>
0

> <PUBCHEM_ISOTOPIC_ATOM_COUNT>
0

> <PUBCHEM_COMPONENT_COUNT>
1

> <PUBCHEM_CACTVS_TAUTO_COUNT>
-1

> <PUBCHEM_COORDINATE_TYPE>
1
5
255

> <PUBCHEM_BONDANNOTATIONS>
11  1  5
10  33  6
12  22  5
14  25  5
19  44  5
24  54  6
26  58  6
13  3  5
28  6  6
9  21  5

$$$$
