24853602
  -OEChem-05162309522D

 84 86  0     1  0  0  0  0  0999 V2000
    8.1192    4.1048    0.0000 O   0  0  0  0  0  0  0  0  0  0  0  0
    8.0622    3.0170    0.0000 O   0  0  0  0  0  0  0  0  0  0  0  0
   10.6603    1.5170    0.0000 O   0  0  0  0  0  0  0  0  0  0  0  0
    6.6648    7.4830    0.0000 O   0  0  0  0  0  0  0  0  0  0  0  0
    9.7942    0.0171    0.0000 O   0  0  0  0  0  0  0  0  0  0  0  0
   11.5263   -0.9829    0.0000 O   0  0  0  0  0  0  0  0  0  0  0  0
   13.2583   -2.9830    0.0000 O   0  0  0  0  0  0  0  0  0  0  0  0
   11.5263   -2.9830    0.0000 O   0  0  0  0  0  0  0  0  0  0  0  0
    8.9282    3.5170    0.0000 C   0  0  2  0  0  0  0  0  0  0  0  0
    9.7372    4.1048    0.0000 C   0  0  0  0  0  0  0  0  0  0  0  0
    9.7942    3.0170    0.0000 C   0  0  0  0  0  0  0  0  0  0  0  0
    8.4282    5.0559    0.0000 C   0  0  0  0  0  0  0  0  0  0  0  0
    9.4282    5.0559    0.0000 C   0  0  0  0  0  0  0  0  0  0  0  0
    9.7942    2.0170    0.0000 C   0  0  1  0  0  0  0  0  0  0  0  0
    8.0622    2.0170    0.0000 C   0  0  1  0  0  0  0  0  0  0  0  0
    8.9282    1.5170    0.0000 C   0  0  0  0  0  0  0  0  0  0  0  0
    7.1962    1.5170    0.0000 C   0  0  0  0  0  0  0  0  0  0  0  0
    7.4337    4.9514    0.0000 C   0  0  0  0  0  0  0  0  0  0  0  0
    8.8349    5.9694    0.0000 C   0  0  0  0  0  0  0  0  0  0  0  0
    7.1962    0.5171    0.0000 C   0  0  0  0  0  0  0  0  0  0  0  0
    6.3301    0.0171    0.0000 C   0  0  0  0  0  0  0  0  0  0  0  0
    6.8459    5.7604    0.0000 C   0  0  0  0  0  0  0  0  0  0  0  0
    8.2472    6.7785    0.0000 C   0  0  0  0  0  0  0  0  0  0  0  0
    7.2526    6.6739    0.0000 C   0  0  0  0  0  0  0  0  0  0  0  0
    6.3301   -0.9829    0.0000 C   0  0  0  0  0  0  0  0  0  0  0  0
   10.6603    0.5171    0.0000 C   0  0  0  0  0  0  0  0  0  0  0  0
    5.4641   -1.4830    0.0000 C   0  0  0  0  0  0  0  0  0  0  0  0
    5.4641   -2.4830    0.0000 C   0  0  0  0  0  0  0  0  0  0  0  0
   11.5263    0.0171    0.0000 C   0  0  0  0  0  0  0  0  0  0  0  0
    4.5981   -2.9830    0.0000 C   0  0  0  0  0  0  0  0  0  0  0  0
    4.5981   -3.9830    0.0000 C   0  0  0  0  0  0  0  0  0  0  0  0
    3.7320   -4.4830    0.0000 C   0  0  0  0  0  0  0  0  0  0  0  0
    3.7320   -5.4830    0.0000 C   0  0  0  0  0  0  0  0  0  0  0  0
    2.8660   -5.9830    0.0000 C   0  0  0  0  0  0  0  0  0  0  0  0
   12.3923   -1.4830    0.0000 C   0  0  0  0  0  0  0  0  0  0  0  0
    2.8660   -6.9830    0.0000 C   0  0  0  0  0  0  0  0  0  0  0  0
    2.0000   -7.4830    0.0000 C   0  0  0  0  0  0  0  0  0  0  0  0
   12.3923   -2.4830    0.0000 C   0  0  0  0  0  0  0  0  0  0  0  0
   10.0472    3.5679    0.0000 H   0  0  0  0  0  0  0  0  0  0  0  0
   10.3036    4.3570    0.0000 H   0  0  0  0  0  0  0  0  0  0  0  0
   10.4048    2.9094    0.0000 H   0  0  0  0  0  0  0  0  0  0  0  0
   10.0063    3.5997    0.0000 H   0  0  0  0  0  0  0  0  0  0  0  0
   10.0347    5.1848    0.0000 H   0  0  0  0  0  0  0  0  0  0  0  0
    9.3634    5.6725    0.0000 H   0  0  0  0  0  0  0  0  0  0  0  0
    9.7942    1.3970    0.0000 H   0  0  0  0  0  0  0  0  0  0  0  0
    7.5252    2.3270    0.0000 H   0  0  0  0  0  0  0  0  0  0  0  0
    8.5297    1.0421    0.0000 H   0  0  0  0  0  0  0  0  0  0  0  0
    9.3267    1.0421    0.0000 H   0  0  0  0  0  0  0  0  0  0  0  0
    6.9841    2.0997    0.0000 H   0  0  0  0  0  0  0  0  0  0  0  0
    6.5856    1.4094    0.0000 H   0  0  0  0  0  0  0  0  0  0  0  0
    7.1815    4.3850    0.0000 H   0  0  0  0  0  0  0  0  0  0  0  0
    9.4515    6.0342    0.0000 H   0  0  0  0  0  0  0  0  0  0  0  0
    7.4082   -0.0656    0.0000 H   0  0  0  0  0  0  0  0  0  0  0  0
    7.8067    0.6247    0.0000 H   0  0  0  0  0  0  0  0  0  0  0  0
    6.1181    0.5997    0.0000 H   0  0  0  0  0  0  0  0  0  0  0  0
    5.7196   -0.0906    0.0000 H   0  0  0  0  0  0  0  0  0  0  0  0
    6.2293    5.6956    0.0000 H   0  0  0  0  0  0  0  0  0  0  0  0
    8.4993    7.3449    0.0000 H   0  0  0  0  0  0  0  0  0  0  0  0
    6.5422   -1.5656    0.0000 H   0  0  0  0  0  0  0  0  0  0  0  0
    6.9407   -0.8753    0.0000 H   0  0  0  0  0  0  0  0  0  0  0  0
    5.2520   -0.9003    0.0000 H   0  0  0  0  0  0  0  0  0  0  0  0
    4.8535   -1.5906    0.0000 H   0  0  0  0  0  0  0  0  0  0  0  0
    5.6762   -3.0656    0.0000 H   0  0  0  0  0  0  0  0  0  0  0  0
    6.0747   -2.3753    0.0000 H   0  0  0  0  0  0  0  0  0  0  0  0
   12.1369   -0.0906    0.0000 H   0  0  0  0  0  0  0  0  0  0  0  0
   11.7383    0.5997    0.0000 H   0  0  0  0  0  0  0  0  0  0  0  0
    4.3860   -2.4003    0.0000 H   0  0  0  0  0  0  0  0  0  0  0  0
    3.9875   -3.0906    0.0000 H   0  0  0  0  0  0  0  0  0  0  0  0
    4.8101   -4.5656    0.0000 H   0  0  0  0  0  0  0  0  0  0  0  0
    5.2087   -3.8753    0.0000 H   0  0  0  0  0  0  0  0  0  0  0  0
    3.5200   -3.9003    0.0000 H   0  0  0  0  0  0  0  0  0  0  0  0
    3.1215   -4.5906    0.0000 H   0  0  0  0  0  0  0  0  0  0  0  0
    3.9441   -6.0656    0.0000 H   0  0  0  0  0  0  0  0  0  0  0  0
    4.3426   -5.3753    0.0000 H   0  0  0  0  0  0  0  0  0  0  0  0
    2.6540   -5.4003    0.0000 H   0  0  0  0  0  0  0  0  0  0  0  0
    2.2554   -6.0906    0.0000 H   0  0  0  0  0  0  0  0  0  0  0  0
   13.0029   -1.5906    0.0000 H   0  0  0  0  0  0  0  0  0  0  0  0
   12.6044   -0.9003    0.0000 H   0  0  0  0  0  0  0  0  0  0  0  0
    3.0781   -7.5656    0.0000 H   0  0  0  0  0  0  0  0  0  0  0  0
    3.4766   -6.8753    0.0000 H   0  0  0  0  0  0  0  0  0  0  0  0
    1.6900   -6.9460    0.0000 H   0  0  0  0  0  0  0  0  0  0  0  0
    1.4631   -7.7930    0.0000 H   0  0  0  0  0  0  0  0  0  0  0  0
    2.3100   -8.0199    0.0000 H   0  0  0  0  0  0  0  0  0  0  0  0
   13.2583   -3.6030    0.0000 H   0  0  0  0  0  0  0  0  0  0  0  0
  1  9  1  0  0  0  0
  1 12  1  0  0  0  0
  9  2  1  1  0  0  0
  2 15  1  0  0  0  0
 14  3  1  6  0  0  0
  3 26  1  0  0  0  0
  4 24  2  0  0  0  0
  5 26  2  0  0  0  0
  6 29  1  0  0  0  0
  6 35  1  0  0  0  0
  7 38  1  0  0  0  0
  7 84  1  0  0  0  0
  8 38  2  0  0  0  0
  9 10  1  0  0  0  0
  9 11  1  0  0  0  0
 10 13  1  0  0  0  0
 10 39  1  0  0  0  0
 10 40  1  0  0  0  0
 11 14  1  0  0  0  0
 11 41  1  0  0  0  0
 11 42  1  0  0  0  0
 12 13  1  0  0  0  0
 12 18  1  0  0  0  0
 12 19  1  0  0  0  0
 13 43  1  0  0  0  0
 13 44  1  0  0  0  0
 14 16  1  0  0  0  0
 14 45  1  0  0  0  0
 15 16  1  0  0  0  0
 15 17  1  1  0  0  0
 15 46  1  0  0  0  0
 16 47  1  0  0  0  0
 16 48  1  0  0  0  0
 17 20  1  0  0  0  0
 17 49  1  0  0  0  0
 17 50  1  0  0  0  0
 18 22  2  0  0  0  0
 18 51  1  0  0  0  0
 19 23  2  0  0  0  0
 19 52  1  0  0  0  0
 20 21  1  0  0  0  0
 20 53  1  0  0  0  0
 20 54  1  0  0  0  0
 21 25  1  0  0  0  0
 21 55  1  0  0  0  0
 21 56  1  0  0  0  0
 22 24  1  0  0  0  0
 22 57  1  0  0  0  0
 23 24  1  0  0  0  0
 23 58  1  0  0  0  0
 25 27  1  0  0  0  0
 25 59  1  0  0  0  0
 25 60  1  0  0  0  0
 26 29  1  0  0  0  0
 27 28  1  0  0  0  0
 27 61  1  0  0  0  0
 27 62  1  0  0  0  0
 28 30  1  0  0  0  0
 28 63  1  0  0  0  0
 28 64  1  0  0  0  0
 29 65  1  0  0  0  0
 29 66  1  0  0  0  0
 30 31  1  0  0  0  0
 30 67  1  0  0  0  0
 30 68  1  0  0  0  0
 31 32  1  0  0  0  0
 31 69  1  0  0  0  0
 31 70  1  0  0  0  0
 32 33  1  0  0  0  0
 32 71  1  0  0  0  0
 32 72  1  0  0  0  0
 33 34  1  0  0  0  0
 33 73  1  0  0  0  0
 33 74  1  0  0  0  0
 34 36  1  0  0  0  0
 34 75  1  0  0  0  0
 34 76  1  0  0  0  0
 35 38  1  0  0  0  0
 35 77  1  0  0  0  0
 35 78  1  0  0  0  0
 36 37  1  0  0  0  0
 36 79  1  0  0  0  0
 36 80  1  0  0  0  0
 37 81  1  0  0  0  0
 37 82  1  0  0  0  0
 37 83  1  0  0  0  0
M  END
> <PUBCHEM_COMPOUND_CID>
24853602

> <PUBCHEM_COMPOUND_CANONICALIZED>
1

> <PUBCHEM_CACTVS_COMPLEXITY>
818

> <PUBCHEM_CACTVS_HBOND_ACCEPTOR>
8

> <PUBCHEM_CACTVS_HBOND_DONOR>
1

> <PUBCHEM_CACTVS_ROTATABLE_BOND>
18

> <PUBCHEM_CACTVS_SUBSKEYS>
AAADcfB4PAAAAAAAAAAAAAAAAAAAASAAAAAkQAAAAAAAAAAAAAAAGgAACAAADFSggAICCAAABgCIAKDSCAIAAAAgAAAICABAAEgRBAIAIAQiEAAFgAAPIYPA4OwMAAAAAAAAAAAAAAAAAAAAAAAAAAAAAA==

> <PUBCHEM_IUPAC_OPENEYE_NAME>
2-[2-oxo-2-[[(2R,4R,6R)-11-oxo-4-tridecyl-5,7-dioxadispiro[5.1.58.26]pentadeca-9,12-dien-2-yl]oxy]ethoxy]acetic acid

> <PUBCHEM_IUPAC_CAS_NAME>
2-[2-oxo-2-[[(2R,4R,6R)-11-oxo-4-tridecyl-5,7-dioxadispiro[5.1.58.26]pentadeca-9,12-dien-2-yl]oxy]ethoxy]acetic acid

> <PUBCHEM_IUPAC_NAME_MARKUP>
2-[2-oxo-2-[[(2<I>R</I>,4<I>R</I>,6<I>R</I>)-11-oxo-4-tridecyl-5,7-dioxadispiro[5.1.5<SUP>8</SUP>.2<SUP>6</SUP>]pentadeca-9,12-dien-2-yl]oxy]ethoxy]acetic acid

> <PUBCHEM_IUPAC_NAME>
2-[2-oxo-2-[[(2R,4R,6R)-11-oxo-4-tridecyl-5,7-dioxadispiro[5.1.58.26]pentadeca-9,12-dien-2-yl]oxy]ethoxy]acetic acid

> <PUBCHEM_IUPAC_SYSTEMATIC_NAME>
2-[2-oxidanylidene-2-[[(2R,4R,6R)-11-oxidanylidene-4-tridecyl-5,7-dioxadispiro[5.1.58.26]pentadeca-9,12-dien-2-yl]oxy]ethoxy]ethanoic acid

> <PUBCHEM_IUPAC_TRADITIONAL_NAME>
2-[2-keto-2-[[(2R,4R,6R)-11-keto-4-tridecyl-5,7-dioxadispiro[5.1.58.26]pentadeca-9,12-dien-2-yl]oxy]ethoxy]acetic acid

> <PUBCHEM_IUPAC_INCHI>
InChI=1S/C30H46O8/c1-2-3-4-5-6-7-8-9-10-11-12-13-25-20-26(36-28(34)23-35-22-27(32)33)21-30(37-25)19-18-29(38-30)16-14-24(31)15-17-29/h14-17,25-26H,2-13,18-23H2,1H3,(H,32,33)/t25-,26-,30-/m1/s1

> <PUBCHEM_IUPAC_INCHIKEY>
WAGIIXLZRNZTQB-VOKYQHOCSA-N

> <PUBCHEM_XLOGP3_AA>
7.3

> <PUBCHEM_EXACT_MASS>
534.31926842

> <PUBCHEM_MOLECULAR_FORMULA>
C30H46O8

> <PUBCHEM_MOLECULAR_WEIGHT>
534.7

> <PUBCHEM_OPENEYE_CAN_SMILES>
CCCCCCCCCCCCCC1CC(CC2(O1)CCC3(O2)C=CC(=O)C=C3)OC(=O)COCC(=O)O

> <PUBCHEM_OPENEYE_ISO_SMILES>
CCCCCCCCCCCCC[C@@H]1C[C@H](C[C@@]2(O1)CCC3(O2)C=CC(=O)C=C3)OC(=O)COCC(=O)O

> <PUBCHEM_CACTVS_TPSA>
108

> <PUBCHEM_MONOISOTOPIC_WEIGHT>
534.31926842

> <PUBCHEM_TOTAL_CHARGE>
0

> <PUBCHEM_HEAVY_ATOM_COUNT>
38

> <PUBCHEM_ATOM_DEF_STEREO_COUNT>
3

> <PUBCHEM_ATOM_UDEF_STEREO_COUNT>
0

> <PUBCHEM_BOND_DEF_STEREO_COUNT>
0

> <PUBCHEM_BOND_UDEF_STEREO_COUNT>
0

> <PUBCHEM_ISOTOPIC_ATOM_COUNT>
0

> <PUBCHEM_COMPONENT_COUNT>
1

> <PUBCHEM_CACTVS_TAUTO_COUNT>
-1

> <PUBCHEM_COORDINATE_TYPE>
1
5
255

> <PUBCHEM_BONDANNOTATIONS>
15  17  5
9  2  5
14  3  6

$$$$
