50900598
  -OEChem-05162310352D

 47 49  0     1  0  0  0  0  0999 V2000
    6.3981   -2.2726    0.0000 O   0  0  0  0  0  0  0  0  0  0  0  0
    2.8680    0.7516    0.0000 O   0  0  0  0  0  0  0  0  0  0  0  0
    7.2641    0.2274    0.0000 C   0  0  1  0  0  0  0  0  0  0  0  0
    8.1741    0.7343    0.0000 C   0  0  0  0  0  0  0  0  0  0  0  0
    6.3981    0.7274    0.0000 C   0  0  2  0  0  0  0  0  0  0  0  0
    8.1821    1.7759    0.0000 C   0  0  0  0  0  0  0  0  0  0  0  0
    6.3820    1.7690    0.0000 C   0  0  0  0  0  0  0  0  0  0  0  0
    7.2800    2.2967    0.0000 C   0  0  0  0  0  0  0  0  0  0  0  0
    7.2641   -0.7726    0.0000 C   0  0  0  0  0  0  0  0  0  0  0  0
    5.5320    0.2274    0.0000 C   0  0  0  0  0  0  0  0  0  0  0  0
    9.1740    0.7227    0.0000 C   0  0  0  0  0  0  0  0  0  0  0  0
    8.6640   -0.1375    0.0000 C   0  0  0  0  0  0  0  0  0  0  0  0
    5.5320   -0.7726    0.0000 C   0  0  0  0  0  0  0  0  0  0  0  0
    6.3981   -1.2726    0.0000 C   0  0  0  0  0  0  0  0  0  0  0  0
    4.6381    0.7621    0.0000 C   0  0  0  0  0  0  0  0  0  0  0  0
    4.6381   -1.3072    0.0000 C   0  0  0  0  0  0  0  0  0  0  0  0
    3.7320   -0.7934    0.0000 C   0  0  0  0  0  0  0  0  0  0  0  0
    3.7320    0.2483    0.0000 C   0  0  0  0  0  0  0  0  0  0  0  0
    2.8680   -1.2967    0.0000 C   0  0  0  0  0  0  0  0  0  0  0  0
    2.8718   -2.2967    0.0000 C   0  0  0  0  0  0  0  0  0  0  0  0
    2.0000   -0.8001    0.0000 C   0  0  0  0  0  0  0  0  0  0  0  0
    7.9969   -0.2032    0.0000 H   0  0  0  0  0  0  0  0  0  0  0  0
    7.1309    1.1581    0.0000 H   0  0  0  0  0  0  0  0  0  0  0  0
    8.7922    1.6651    0.0000 H   0  0  0  0  0  0  0  0  0  0  0  0
    8.3957    2.3580    0.0000 H   0  0  0  0  0  0  0  0  0  0  0  0
    6.1640    2.3494    0.0000 H   0  0  0  0  0  0  0  0  0  0  0  0
    5.7729    1.6534    0.0000 H   0  0  0  0  0  0  0  0  0  0  0  0
    7.6774    2.7727    0.0000 H   0  0  0  0  0  0  0  0  0  0  0  0
    6.8791    2.7696    0.0000 H   0  0  0  0  0  0  0  0  0  0  0  0
    7.4762   -1.3552    0.0000 H   0  0  0  0  0  0  0  0  0  0  0  0
    7.8747   -0.6649    0.0000 H   0  0  0  0  0  0  0  0  0  0  0  0
    9.1669    0.1028    0.0000 H   0  0  0  0  0  0  0  0  0  0  0  0
    9.7940    0.7156    0.0000 H   0  0  0  0  0  0  0  0  0  0  0  0
    9.1812    1.3427    0.0000 H   0  0  0  0  0  0  0  0  0  0  0  0
    8.1236   -0.4412    0.0000 H   0  0  0  0  0  0  0  0  0  0  0  0
    8.9678   -0.6779    0.0000 H   0  0  0  0  0  0  0  0  0  0  0  0
    9.2045    0.1663    0.0000 H   0  0  0  0  0  0  0  0  0  0  0  0
    4.6453    1.3821    0.0000 H   0  0  0  0  0  0  0  0  0  0  0  0
    4.6453   -1.9272    0.0000 H   0  0  0  0  0  0  0  0  0  0  0  0
    2.3322   -1.6088    0.0000 H   0  0  0  0  0  0  0  0  0  0  0  0
    2.2518   -2.2991    0.0000 H   0  0  0  0  0  0  0  0  0  0  0  0
    2.8742   -2.9167    0.0000 H   0  0  0  0  0  0  0  0  0  0  0  0
    3.4918   -2.2943    0.0000 H   0  0  0  0  0  0  0  0  0  0  0  0
    2.3079   -0.2619    0.0000 H   0  0  0  0  0  0  0  0  0  0  0  0
    1.4619   -0.4921    0.0000 H   0  0  0  0  0  0  0  0  0  0  0  0
    1.6921   -1.3382    0.0000 H   0  0  0  0  0  0  0  0  0  0  0  0
    2.8703    1.3716    0.0000 H   0  0  0  0  0  0  0  0  0  0  0  0
  1 14  2  0  0  0  0
  2 18  1  0  0  0  0
  2 47  1  0  0  0  0
  3  4  1  0  0  0  0
  3  5  1  0  0  0  0
  3  9  1  0  0  0  0
  3 22  1  1  0  0  0
  4  6  1  0  0  0  0
  4 11  1  0  0  0  0
  4 12  1  0  0  0  0
  5  7  1  0  0  0  0
  5 10  1  0  0  0  0
  5 23  1  6  0  0  0
  6  8  1  0  0  0  0
  6 24  1  0  0  0  0
  6 25  1  0  0  0  0
  7  8  1  0  0  0  0
  7 26  1  0  0  0  0
  7 27  1  0  0  0  0
  8 28  1  0  0  0  0
  8 29  1  0  0  0  0
  9 14  1  0  0  0  0
  9 30  1  0  0  0  0
  9 31  1  0  0  0  0
 10 13  1  0  0  0  0
 10 15  2  0  0  0  0
 11 32  1  0  0  0  0
 11 33  1  0  0  0  0
 11 34  1  0  0  0  0
 12 35  1  0  0  0  0
 12 36  1  0  0  0  0
 12 37  1  0  0  0  0
 13 14  1  0  0  0  0
 13 16  2  0  0  0  0
 15 18  1  0  0  0  0
 15 38  1  0  0  0  0
 16 17  1  0  0  0  0
 16 39  1  0  0  0  0
 17 18  2  0  0  0  0
 17 19  1  0  0  0  0
 19 20  1  0  0  0  0
 19 21  1  0  0  0  0
 19 40  1  0  0  0  0
 20 41  1  0  0  0  0
 20 42  1  0  0  0  0
 20 43  1  0  0  0  0
 21 44  1  0  0  0  0
 21 45  1  0  0  0  0
 21 46  1  0  0  0  0
M  END
> <PUBCHEM_COMPOUND_CID>
50900598

> <PUBCHEM_COMPOUND_CANONICALIZED>
1

> <PUBCHEM_CACTVS_COMPLEXITY>
412

> <PUBCHEM_CACTVS_HBOND_ACCEPTOR>
2

> <PUBCHEM_CACTVS_HBOND_DONOR>
1

> <PUBCHEM_CACTVS_ROTATABLE_BOND>
1

> <PUBCHEM_CACTVS_SUBSKEYS>
AAADceB4MAAAAAAAAAAAAAAAAAAAAAAAAAAwYMAAAAAAAADBAAAAGgAACAAADwSAmAAyBoAAAgCIAqBSAAACAAAkIAAAiAEGCMgIJjKCFRKAcQAkwBEImYeIzPDP4AADAAAYAADAAAYAADAAAAAAAAAAAA==

> <PUBCHEM_IUPAC_OPENEYE_NAME>
(4aS,10aR)-6-hydroxy-7-isopropyl-1,1-dimethyl-2,3,4,4a,10,10a-hexahydrophenanthren-9-one

> <PUBCHEM_IUPAC_CAS_NAME>
(4aS,10aR)-6-hydroxy-1,1-dimethyl-7-propan-2-yl-2,3,4,4a,10,10a-hexahydrophenanthren-9-one

> <PUBCHEM_IUPAC_NAME_MARKUP>
(4<I>a</I><I>S</I>,10<I>a</I><I>R</I>)-6-hydroxy-1,1-dimethyl-7-propan-2-yl-2,3,4,4<I>a</I>,10,10<I>a</I>-hexahydrophenanthren-9-one

> <PUBCHEM_IUPAC_NAME>
(4aS,10aR)-6-hydroxy-1,1-dimethyl-7-propan-2-yl-2,3,4,4a,10,10a-hexahydrophenanthren-9-one

> <PUBCHEM_IUPAC_SYSTEMATIC_NAME>
(4aS,10aR)-1,1-dimethyl-6-oxidanyl-7-propan-2-yl-2,3,4,4a,10,10a-hexahydrophenanthren-9-one

> <PUBCHEM_IUPAC_TRADITIONAL_NAME>
(4aS,10aR)-6-hydroxy-7-isopropyl-1,1-dimethyl-2,3,4,4a,10,10a-hexahydrophenanthren-9-one

> <PUBCHEM_IUPAC_INCHI>
InChI=1S/C19H26O2/c1-11(2)13-8-15-14(9-17(13)20)12-6-5-7-19(3,4)16(12)10-18(15)21/h8-9,11-12,16,20H,5-7,10H2,1-4H3/t12-,16-/m1/s1

> <PUBCHEM_IUPAC_INCHIKEY>
CCEWUJMXSVJXEO-MLGOLLRUSA-N

> <PUBCHEM_XLOGP3_AA>
5.1

> <PUBCHEM_EXACT_MASS>
286.193280068

> <PUBCHEM_MOLECULAR_FORMULA>
C19H26O2

> <PUBCHEM_MOLECULAR_WEIGHT>
286.4

> <PUBCHEM_OPENEYE_CAN_SMILES>
CC(C)C1=C(C=C2C3CCCC(C3CC(=O)C2=C1)(C)C)O

> <PUBCHEM_OPENEYE_ISO_SMILES>
CC(C)C1=C(C=C2[C@H]3CCCC([C@@H]3CC(=O)C2=C1)(C)C)O

> <PUBCHEM_CACTVS_TPSA>
37.3

> <PUBCHEM_MONOISOTOPIC_WEIGHT>
286.193280068

> <PUBCHEM_TOTAL_CHARGE>
0

> <PUBCHEM_HEAVY_ATOM_COUNT>
21

> <PUBCHEM_ATOM_DEF_STEREO_COUNT>
2

> <PUBCHEM_ATOM_UDEF_STEREO_COUNT>
0

> <PUBCHEM_BOND_DEF_STEREO_COUNT>
0

> <PUBCHEM_BOND_UDEF_STEREO_COUNT>
0

> <PUBCHEM_ISOTOPIC_ATOM_COUNT>
0

> <PUBCHEM_COMPONENT_COUNT>
1

> <PUBCHEM_CACTVS_TAUTO_COUNT>
-1

> <PUBCHEM_COORDINATE_TYPE>
1
5
255

> <PUBCHEM_BONDANNOTATIONS>
10  13  8
10  15  8
13  16  8
15  18  8
16  17  8
17  18  8
3  22  5
5  23  6

$$$$
