76324797
  -OEChem-05162308572D

 55 57  0     1  0  0  0  0  0999 V2000
    7.1962   -1.0000    0.0000 O   0  0  0  0  0  0  0  0  0  0  0  0
    8.9282   -2.0000    0.0000 O   0  0  0  0  0  0  0  0  0  0  0  0
   12.4725   -0.8047    0.0000 O   0  0  0  0  0  0  0  0  0  0  0  0
   12.4725    0.8047    0.0000 O   0  0  0  0  0  0  0  0  0  0  0  0
   10.6603    2.0000    0.0000 O   0  0  0  0  0  0  0  0  0  0  0  0
    5.4641   -2.0000    0.0000 O   0  0  0  0  0  0  0  0  0  0  0  0
    7.1962    1.0000    0.0000 O   0  0  0  0  0  0  0  0  0  0  0  0
    8.9282   -1.0000    0.0000 C   0  0  1  0  0  0  0  0  0  0  0  0
    8.0622   -0.5000    0.0000 C   0  0  1  0  0  0  0  0  0  0  0  0
    9.7942   -0.5000    0.0000 C   0  0  0  0  0  0  0  0  0  0  0  0
    8.0622    0.5000    0.0000 C   0  0  0  0  0  0  0  0  0  0  0  0
   10.6603   -1.0000    0.0000 C   0  0  0  0  0  0  0  0  0  0  0  0
    9.7942    0.5000    0.0000 C   0  0  0  0  0  0  0  0  0  0  0  0
   11.5263   -0.5000    0.0000 C   0  0  0  0  0  0  0  0  0  0  0  0
   11.5263    0.5000    0.0000 C   0  0  0  0  0  0  0  0  0  0  0  0
   10.6603    1.0000    0.0000 C   0  0  0  0  0  0  0  0  0  0  0  0
    6.3301   -0.5000    0.0000 C   0  0  0  0  0  0  0  0  0  0  0  0
    5.4641   -1.0000    0.0000 C   0  0  0  0  0  0  0  0  0  0  0  0
    6.3301    0.5000    0.0000 C   0  0  0  0  0  0  0  0  0  0  0  0
   13.0561    0.0000    0.0000 C   0  0  0  0  0  0  0  0  0  0  0  0
    4.5981    0.5000    0.0000 C   0  0  0  0  0  0  0  0  0  0  0  0
    4.5981   -0.5000    0.0000 C   0  0  0  0  0  0  0  0  0  0  0  0
    5.4641    1.0000    0.0000 C   0  0  0  0  0  0  0  0  0  0  0  0
    3.7320    1.0000    0.0000 C   0  0  0  0  0  0  0  0  0  0  0  0
    9.7942    2.5000    0.0000 C   0  0  0  0  0  0  0  0  0  0  0  0
    2.8660    0.5000    0.0000 C   0  0  0  0  0  0  0  0  0  0  0  0
    4.5981   -2.5000    0.0000 C   0  0  0  0  0  0  0  0  0  0  0  0
    7.1962    2.0000    0.0000 C   0  0  0  0  0  0  0  0  0  0  0  0
    2.0000    1.0000    0.0000 C   0  0  0  0  0  0  0  0  0  0  0  0
    9.4651   -1.3100    0.0000 H   0  0  0  0  0  0  0  0  0  0  0  0
    8.0622   -1.1200    0.0000 H   0  0  0  0  0  0  0  0  0  0  0  0
    8.6822    0.5000    0.0000 H   0  0  0  0  0  0  0  0  0  0  0  0
    8.0622    1.1200    0.0000 H   0  0  0  0  0  0  0  0  0  0  0  0
    7.4422    0.5000    0.0000 H   0  0  0  0  0  0  0  0  0  0  0  0
   10.6603   -1.6200    0.0000 H   0  0  0  0  0  0  0  0  0  0  0  0
    9.2573    0.8100    0.0000 H   0  0  0  0  0  0  0  0  0  0  0  0
    8.3913   -2.3100    0.0000 H   0  0  0  0  0  0  0  0  0  0  0  0
   13.5170   -0.4147    0.0000 H   0  0  0  0  0  0  0  0  0  0  0  0
   13.5170    0.4147    0.0000 H   0  0  0  0  0  0  0  0  0  0  0  0
    4.0611   -0.8100    0.0000 H   0  0  0  0  0  0  0  0  0  0  0  0
    5.4641    1.6200    0.0000 H   0  0  0  0  0  0  0  0  0  0  0  0
    4.1306    1.4750    0.0000 H   0  0  0  0  0  0  0  0  0  0  0  0
    3.3335    1.4750    0.0000 H   0  0  0  0  0  0  0  0  0  0  0  0
   10.1042    3.0369    0.0000 H   0  0  0  0  0  0  0  0  0  0  0  0
    9.2573    2.8100    0.0000 H   0  0  0  0  0  0  0  0  0  0  0  0
    9.4842    1.9631    0.0000 H   0  0  0  0  0  0  0  0  0  0  0  0
    2.8660   -0.1200    0.0000 H   0  0  0  0  0  0  0  0  0  0  0  0
    4.2881   -1.9631    0.0000 H   0  0  0  0  0  0  0  0  0  0  0  0
    4.0611   -2.8100    0.0000 H   0  0  0  0  0  0  0  0  0  0  0  0
    4.9081   -3.0369    0.0000 H   0  0  0  0  0  0  0  0  0  0  0  0
    7.8162    2.0000    0.0000 H   0  0  0  0  0  0  0  0  0  0  0  0
    7.1962    2.6200    0.0000 H   0  0  0  0  0  0  0  0  0  0  0  0
    6.5762    2.0000    0.0000 H   0  0  0  0  0  0  0  0  0  0  0  0
    2.0000    1.6200    0.0000 H   0  0  0  0  0  0  0  0  0  0  0  0
    1.4631    0.6900    0.0000 H   0  0  0  0  0  0  0  0  0  0  0  0
  9  1  1  6  0  0  0
  1 17  1  0  0  0  0
  8  2  1  1  0  0  0
  2 37  1  0  0  0  0
  3 14  1  0  0  0  0
  3 20  1  0  0  0  0
  4 15  1  0  0  0  0
  4 20  1  0  0  0  0
  5 16  1  0  0  0  0
  5 25  1  0  0  0  0
  6 18  1  0  0  0  0
  6 27  1  0  0  0  0
  7 19  1  0  0  0  0
  7 28  1  0  0  0  0
  8  9  1  0  0  0  0
  8 10  1  0  0  0  0
  8 30  1  0  0  0  0
  9 11  1  0  0  0  0
  9 31  1  0  0  0  0
 10 12  2  0  0  0  0
 10 13  1  0  0  0  0
 11 32  1  0  0  0  0
 11 33  1  0  0  0  0
 11 34  1  0  0  0  0
 12 14  1  0  0  0  0
 12 35  1  0  0  0  0
 13 16  2  0  0  0  0
 13 36  1  0  0  0  0
 14 15  2  0  0  0  0
 15 16  1  0  0  0  0
 17 18  2  0  0  0  0
 17 19  1  0  0  0  0
 18 22  1  0  0  0  0
 19 23  2  0  0  0  0
 20 38  1  0  0  0  0
 20 39  1  0  0  0  0
 21 22  2  0  0  0  0
 21 23  1  0  0  0  0
 21 24  1  0  0  0  0
 22 40  1  0  0  0  0
 23 41  1  0  0  0  0
 24 26  1  0  0  0  0
 24 42  1  0  0  0  0
 24 43  1  0  0  0  0
 25 44  1  0  0  0  0
 25 45  1  0  0  0  0
 25 46  1  0  0  0  0
 26 29  2  0  0  0  0
 26 47  1  0  0  0  0
 27 48  1  0  0  0  0
 27 49  1  0  0  0  0
 27 50  1  0  0  0  0
 28 51  1  0  0  0  0
 28 52  1  0  0  0  0
 28 53  1  0  0  0  0
 29 54  1  0  0  0  0
 29 55  1  0  0  0  0
M  END
> <PUBCHEM_COMPOUND_CID>
76324797

> <PUBCHEM_COMPOUND_CANONICALIZED>
1

> <PUBCHEM_CACTVS_COMPLEXITY>
501

> <PUBCHEM_CACTVS_HBOND_ACCEPTOR>
7

> <PUBCHEM_CACTVS_HBOND_DONOR>
1

> <PUBCHEM_CACTVS_ROTATABLE_BOND>
9

> <PUBCHEM_CACTVS_SUBSKEYS>
AAADceB4OAAAAAAAAAAAAAAAAAAAASAAAAAwYAAAAAAAAEgBQAAAGgAACAAADBSgmAMyDoAABgCAAiBCAAACCAAgIAAIiAAGiIgdNyKEMRqieCKlwBUPuAfA4LwOIAABCAAAQABAAAIQAACAAAAAAAAAAA==

> <PUBCHEM_IUPAC_OPENEYE_NAME>
(1R,2R)-2-(4-allyl-2,6-dimethoxy-phenoxy)-1-(7-methoxy-1,3-benzodioxol-5-yl)propan-1-ol

> <PUBCHEM_IUPAC_CAS_NAME>
(1R,2R)-2-(2,6-dimethoxy-4-prop-2-enylphenoxy)-1-(7-methoxy-1,3-benzodioxol-5-yl)-1-propanol

> <PUBCHEM_IUPAC_NAME_MARKUP>
(1<I>R</I>,2<I>R</I>)-2-(2,6-dimethoxy-4-prop-2-enylphenoxy)-1-(7-methoxy-1,3-benzodioxol-5-yl)propan-1-ol

> <PUBCHEM_IUPAC_NAME>
(1R,2R)-2-(2,6-dimethoxy-4-prop-2-enylphenoxy)-1-(7-methoxy-1,3-benzodioxol-5-yl)propan-1-ol

> <PUBCHEM_IUPAC_SYSTEMATIC_NAME>
(1R,2R)-2-(2,6-dimethoxy-4-prop-2-enyl-phenoxy)-1-(7-methoxy-1,3-benzodioxol-5-yl)propan-1-ol

> <PUBCHEM_IUPAC_TRADITIONAL_NAME>
(1R,2R)-2-(4-allyl-2,6-dimethoxy-phenoxy)-1-(7-methoxy-1,3-benzodioxol-5-yl)propan-1-ol

> <PUBCHEM_IUPAC_INCHI>
InChI=1S/C22H26O7/c1-6-7-14-8-16(24-3)22(17(9-14)25-4)29-13(2)20(23)15-10-18(26-5)21-19(11-15)27-12-28-21/h6,8-11,13,20,23H,1,7,12H2,2-5H3/t13-,20+/m1/s1

> <PUBCHEM_IUPAC_INCHIKEY>
BKBJBGBNWACESC-XCLFUZPHSA-N

> <PUBCHEM_XLOGP3_AA>
4

> <PUBCHEM_EXACT_MASS>
402.16785316

> <PUBCHEM_MOLECULAR_FORMULA>
C22H26O7

> <PUBCHEM_MOLECULAR_WEIGHT>
402.4

> <PUBCHEM_OPENEYE_CAN_SMILES>
CC(C(C1=CC2=C(C(=C1)OC)OCO2)O)OC3=C(C=C(C=C3OC)CC=C)OC

> <PUBCHEM_OPENEYE_ISO_SMILES>
C[C@H]([C@@H](C1=CC2=C(C(=C1)OC)OCO2)O)OC3=C(C=C(C=C3OC)CC=C)OC

> <PUBCHEM_CACTVS_TPSA>
75.6

> <PUBCHEM_MONOISOTOPIC_WEIGHT>
402.16785316

> <PUBCHEM_TOTAL_CHARGE>
0

> <PUBCHEM_HEAVY_ATOM_COUNT>
29

> <PUBCHEM_ATOM_DEF_STEREO_COUNT>
2

> <PUBCHEM_ATOM_UDEF_STEREO_COUNT>
0

> <PUBCHEM_BOND_DEF_STEREO_COUNT>
0

> <PUBCHEM_BOND_UDEF_STEREO_COUNT>
0

> <PUBCHEM_ISOTOPIC_ATOM_COUNT>
0

> <PUBCHEM_COMPONENT_COUNT>
1

> <PUBCHEM_CACTVS_TAUTO_COUNT>
-1

> <PUBCHEM_COORDINATE_TYPE>
1
5
255

> <PUBCHEM_BONDANNOTATIONS>
9  1  6
10  12  8
10  13  8
12  14  8
13  16  8
14  15  8
15  16  8
17  18  8
17  19  8
18  22  8
19  23  8
8  2  5
21  22  8
21  23  8

$$$$
