50900599
  -OEChem-05162308282D

 49 51  0     1  0  0  0  0  0999 V2000
    4.6876    0.7906    0.0000 O   0  0  0  0  0  0  0  0  0  0  0  0
    2.3038   -2.6273    0.0000 O   0  0  0  0  0  0  0  0  0  0  0  0
    7.2857   -1.7094    0.0000 O   0  0  0  0  0  0  0  0  0  0  0  0
    6.4318    2.8599    0.0000 O   0  0  0  0  0  0  0  0  0  0  0  0
    4.6876   -1.2094    0.0000 C   0  0  1  0  0  0  0  0  0  0  0  0
    3.7937   -1.7440    0.0000 C   0  0  2  0  0  0  0  0  0  0  0  0
    4.6876   -0.2094    0.0000 C   0  0  1  0  0  0  0  0  0  0  0  0
    2.8876   -1.2302    0.0000 C   0  0  0  0  0  0  0  0  0  0  0  0
    3.7937    0.3253    0.0000 C   0  0  0  0  0  0  0  0  0  0  0  0
    2.8876   -0.1885    0.0000 C   0  0  0  0  0  0  0  0  0  0  0  0
    5.5536   -1.7094    0.0000 C   0  0  0  0  0  0  0  0  0  0  0  0
    5.5536    0.2906    0.0000 C   0  0  0  0  0  0  0  0  0  0  0  0
    3.3037   -2.6158    0.0000 C   0  0  0  0  0  0  0  0  0  0  0  0
    4.3036   -2.6042    0.0000 C   0  0  0  0  0  0  0  0  0  0  0  0
    6.4196   -0.2094    0.0000 C   0  0  0  0  0  0  0  0  0  0  0  0
    6.4196   -1.2094    0.0000 C   0  0  0  0  0  0  0  0  0  0  0  0
    5.5376    1.3322    0.0000 C   0  0  0  0  0  0  0  0  0  0  0  0
    7.3296    0.2975    0.0000 C   0  0  0  0  0  0  0  0  0  0  0  0
    7.3377    1.3391    0.0000 C   0  0  0  0  0  0  0  0  0  0  0  0
    6.4356    1.8599    0.0000 C   0  0  0  0  0  0  0  0  0  0  0  0
    8.2056    1.8357    0.0000 C   0  0  0  0  0  0  0  0  0  0  0  0
    9.0697    1.3324    0.0000 C   0  0  0  0  0  0  0  0  0  0  0  0
    8.2095    2.8357    0.0000 C   0  0  0  0  0  0  0  0  0  0  0  0
    4.6941   -2.0593    0.0000 H   0  0  0  0  0  0  0  0  0  0  0  0
    2.2767   -1.1241    0.0000 H   0  0  0  0  0  0  0  0  0  0  0  0
    2.6785   -1.8139    0.0000 H   0  0  0  0  0  0  0  0  0  0  0  0
    4.1982    0.7951    0.0000 H   0  0  0  0  0  0  0  0  0  0  0  0
    3.4000    0.8043    0.0000 H   0  0  0  0  0  0  0  0  0  0  0  0
    2.6785    0.3951    0.0000 H   0  0  0  0  0  0  0  0  0  0  0  0
    2.2767   -0.2946    0.0000 H   0  0  0  0  0  0  0  0  0  0  0  0
    5.1551   -2.1843    0.0000 H   0  0  0  0  0  0  0  0  0  0  0  0
    5.9521   -2.1843    0.0000 H   0  0  0  0  0  0  0  0  0  0  0  0
    3.2031   -3.2276    0.0000 H   0  0  0  0  0  0  0  0  0  0  0  0
    3.8887   -2.8211    0.0000 H   0  0  0  0  0  0  0  0  0  0  0  0
    3.7703   -2.9204    0.0000 H   0  0  0  0  0  0  0  0  0  0  0  0
    4.6198   -3.1375    0.0000 H   0  0  0  0  0  0  0  0  0  0  0  0
    4.8370   -2.2880    0.0000 H   0  0  0  0  0  0  0  0  0  0  0  0
    4.1507    1.1006    0.0000 H   0  0  0  0  0  0  0  0  0  0  0  0
    4.9971    1.6359    0.0000 H   0  0  0  0  0  0  0  0  0  0  0  0
    7.8630   -0.0187    0.0000 H   0  0  0  0  0  0  0  0  0  0  0  0
    2.0000   -3.1678    0.0000 H   0  0  0  0  0  0  0  0  0  0  0  0
    8.7438    2.1437    0.0000 H   0  0  0  0  0  0  0  0  0  0  0  0
    8.7576    0.7967    0.0000 H   0  0  0  0  0  0  0  0  0  0  0  0
    9.6054    1.0203    0.0000 H   0  0  0  0  0  0  0  0  0  0  0  0
    9.3818    1.8681    0.0000 H   0  0  0  0  0  0  0  0  0  0  0  0
    8.8295    2.8333    0.0000 H   0  0  0  0  0  0  0  0  0  0  0  0
    8.2119    3.4557    0.0000 H   0  0  0  0  0  0  0  0  0  0  0  0
    7.5895    2.8381    0.0000 H   0  0  0  0  0  0  0  0  0  0  0  0
    5.8936    3.1678    0.0000 H   0  0  0  0  0  0  0  0  0  0  0  0
  7  1  1  1  0  0  0
  1 38  1  0  0  0  0
  2 13  1  0  0  0  0
  2 41  1  0  0  0  0
  3 16  2  0  0  0  0
  4 20  1  0  0  0  0
  4 49  1  0  0  0  0
  5  6  1  0  0  0  0
  5  7  1  0  0  0  0
  5 11  1  0  0  0  0
  5 24  1  6  0  0  0
  6  8  1  0  0  0  0
  6 13  1  0  0  0  0
  6 14  1  6  0  0  0
  7  9  1  0  0  0  0
  7 12  1  0  0  0  0
  8 10  1  0  0  0  0
  8 25  1  0  0  0  0
  8 26  1  0  0  0  0
  9 10  1  0  0  0  0
  9 27  1  0  0  0  0
  9 28  1  0  0  0  0
 10 29  1  0  0  0  0
 10 30  1  0  0  0  0
 11 16  1  0  0  0  0
 11 31  1  0  0  0  0
 11 32  1  0  0  0  0
 12 15  1  0  0  0  0
 12 17  2  0  0  0  0
 13 33  1  0  0  0  0
 13 34  1  0  0  0  0
 14 35  1  0  0  0  0
 14 36  1  0  0  0  0
 14 37  1  0  0  0  0
 15 16  1  0  0  0  0
 15 18  2  0  0  0  0
 17 20  1  0  0  0  0
 17 39  1  0  0  0  0
 18 19  1  0  0  0  0
 18 40  1  0  0  0  0
 19 20  2  0  0  0  0
 19 21  1  0  0  0  0
 21 22  1  0  0  0  0
 21 23  1  0  0  0  0
 21 42  1  0  0  0  0
 22 43  1  0  0  0  0
 22 44  1  0  0  0  0
 22 45  1  0  0  0  0
 23 46  1  0  0  0  0
 23 47  1  0  0  0  0
 23 48  1  0  0  0  0
M  END
> <PUBCHEM_COMPOUND_CID>
50900599

> <PUBCHEM_COMPOUND_CANONICALIZED>
1

> <PUBCHEM_CACTVS_COMPLEXITY>
476

> <PUBCHEM_CACTVS_HBOND_ACCEPTOR>
4

> <PUBCHEM_CACTVS_HBOND_DONOR>
3

> <PUBCHEM_CACTVS_ROTATABLE_BOND>
2

> <PUBCHEM_CACTVS_SUBSKEYS>
AAADceB4OAAAAAAAAAAAAAAAAAAAAAAAAAAwYMAAAAAAAADBAAAAGgAACAAAD0SgmAIyBoAAAgCIAqBSAAACAAAkIAAAiAEGCMgINjKCFRKAcQAkwBEImYfKzPDP4AADAAAYAADAAAYAADAAAAAAAAAAAA==

> <PUBCHEM_IUPAC_OPENEYE_NAME>
(1S,4aR,10aS)-4a,6-dihydroxy-1-(hydroxymethyl)-7-isopropyl-1-methyl-3,4,10,10a-tetrahydro-2H-phenanthren-9-one

> <PUBCHEM_IUPAC_CAS_NAME>
(1S,4aR,10aS)-4a,6-dihydroxy-1-(hydroxymethyl)-1-methyl-7-propan-2-yl-3,4,10,10a-tetrahydro-2H-phenanthren-9-one

> <PUBCHEM_IUPAC_NAME_MARKUP>
(1<I>S</I>,4<I>a</I><I>R</I>,10<I>a</I><I>S</I>)-4<I>a</I>,6-dihydroxy-1-(hydroxymethyl)-1-methyl-7-propan-2-yl-3,4,10,10<I>a</I>-tetrahydro-2<I>H</I>-phenanthren-9-one

> <PUBCHEM_IUPAC_NAME>
(1S,4aR,10aS)-4a,6-dihydroxy-1-(hydroxymethyl)-1-methyl-7-propan-2-yl-3,4,10,10a-tetrahydro-2H-phenanthren-9-one

> <PUBCHEM_IUPAC_SYSTEMATIC_NAME>
(1S,4aR,10aS)-1-(hydroxymethyl)-1-methyl-4a,6-bis(oxidanyl)-7-propan-2-yl-3,4,10,10a-tetrahydro-2H-phenanthren-9-one

> <PUBCHEM_IUPAC_TRADITIONAL_NAME>
(1S,4aR,10aS)-4a,6-dihydroxy-7-isopropyl-1-methyl-1-methylol-3,4,10,10a-tetrahydro-2H-phenanthren-9-one

> <PUBCHEM_IUPAC_INCHI>
InChI=1S/C19H26O4/c1-11(2)12-7-13-14(8-15(12)21)19(23)6-4-5-18(3,10-20)17(19)9-16(13)22/h7-8,11,17,20-21,23H,4-6,9-10H2,1-3H3/t17-,18+,19-/m0/s1

> <PUBCHEM_IUPAC_INCHIKEY>
RDRFKMSTCAZPEC-OTWHNJEPSA-N

> <PUBCHEM_XLOGP3_AA>
2.2

> <PUBCHEM_EXACT_MASS>
318.18310931

> <PUBCHEM_MOLECULAR_FORMULA>
C19H26O4

> <PUBCHEM_MOLECULAR_WEIGHT>
318.4

> <PUBCHEM_OPENEYE_CAN_SMILES>
CC(C)C1=C(C=C2C(=C1)C(=O)CC3C2(CCCC3(C)CO)O)O

> <PUBCHEM_OPENEYE_ISO_SMILES>
CC(C)C1=C(C=C2C(=C1)C(=O)C[C@@H]3[C@@]2(CCC[C@]3(C)CO)O)O

> <PUBCHEM_CACTVS_TPSA>
77.8

> <PUBCHEM_MONOISOTOPIC_WEIGHT>
318.18310931

> <PUBCHEM_TOTAL_CHARGE>
0

> <PUBCHEM_HEAVY_ATOM_COUNT>
23

> <PUBCHEM_ATOM_DEF_STEREO_COUNT>
3

> <PUBCHEM_ATOM_UDEF_STEREO_COUNT>
0

> <PUBCHEM_BOND_DEF_STEREO_COUNT>
0

> <PUBCHEM_BOND_UDEF_STEREO_COUNT>
0

> <PUBCHEM_ISOTOPIC_ATOM_COUNT>
0

> <PUBCHEM_COMPONENT_COUNT>
1

> <PUBCHEM_CACTVS_TAUTO_COUNT>
-1

> <PUBCHEM_COORDINATE_TYPE>
1
5
255

> <PUBCHEM_BONDANNOTATIONS>
7  1  5
12  15  8
12  17  8
15  18  8
17  20  8
18  19  8
19  20  8
5  24  6
6  14  6

$$$$
