76317426
  -OEChem-05162310322D

 65 66  0     1  0  0  0  0  0999 V2000
    4.5981    0.2500    0.0000 O   0  0  0  0  0  0  0  0  0  0  0  0
    4.5981    2.2500    0.0000 O   0  0  0  0  0  0  0  0  0  0  0  0
    7.1962    4.7500    0.0000 O   0  0  0  0  0  0  0  0  0  0  0  0
    8.9282    1.7500    0.0000 O   0  0  0  0  0  0  0  0  0  0  0  0
    8.9282    3.7500    0.0000 O   0  0  0  0  0  0  0  0  0  0  0  0
    6.3301   -0.7500    0.0000 O   0  0  0  0  0  0  0  0  0  0  0  0
    2.8660   -0.7500    0.0000 O   0  0  0  0  0  0  0  0  0  0  0  0
    5.4641    3.7500    0.0000 O   0  0  0  0  0  0  0  0  0  0  0  0
    5.4641    1.7500    0.0000 C   0  0  1  0  0  0  0  0  0  0  0  0
    5.4641    0.7500    0.0000 C   0  0  1  0  0  0  0  0  0  0  0  0
    6.3301    2.2500    0.0000 C   0  0  0  0  0  0  0  0  0  0  0  0
    6.3301    0.2500    0.0000 C   0  0  0  0  0  0  0  0  0  0  0  0
    7.1962    1.7500    0.0000 C   0  0  0  0  0  0  0  0  0  0  0  0
    6.3301    3.2500    0.0000 C   0  0  0  0  0  0  0  0  0  0  0  0
    4.5981   -0.7500    0.0000 C   0  0  0  0  0  0  0  0  0  0  0  0
    7.1962    3.7500    0.0000 C   0  0  0  0  0  0  0  0  0  0  0  0
    8.0622    2.2500    0.0000 C   0  0  0  0  0  0  0  0  0  0  0  0
    8.0622    3.2500    0.0000 C   0  0  0  0  0  0  0  0  0  0  0  0
    5.4641   -1.2500    0.0000 C   0  0  0  0  0  0  0  0  0  0  0  0
    3.7320   -1.2500    0.0000 C   0  0  0  0  0  0  0  0  0  0  0  0
    4.5981    3.2500    0.0000 C   0  0  0  0  0  0  0  0  0  0  0  0
    5.4641   -2.2500    0.0000 C   0  0  0  0  0  0  0  0  0  0  0  0
    3.7320   -2.2500    0.0000 C   0  0  0  0  0  0  0  0  0  0  0  0
    4.5981   -2.7500    0.0000 C   0  0  0  0  0  0  0  0  0  0  0  0
    3.7320    3.7500    0.0000 C   0  0  0  0  0  0  0  0  0  0  0  0
    4.5981   -3.7500    0.0000 C   0  0  0  0  0  0  0  0  0  0  0  0
    6.3301    5.2500    0.0000 C   0  0  0  0  0  0  0  0  0  0  0  0
    9.7942    2.2500    0.0000 C   0  0  0  0  0  0  0  0  0  0  0  0
    8.9282    4.7500    0.0000 C   0  0  0  0  0  0  0  0  0  0  0  0
    7.1962   -1.2500    0.0000 C   0  0  0  0  0  0  0  0  0  0  0  0
    2.0000   -1.2500    0.0000 C   0  0  0  0  0  0  0  0  0  0  0  0
    3.7320   -4.2500    0.0000 C   0  0  0  0  0  0  0  0  0  0  0  0
    3.7320   -5.2500    0.0000 C   0  0  0  0  0  0  0  0  0  0  0  0
    5.4641    2.3700    0.0000 H   0  0  0  0  0  0  0  0  0  0  0  0
    5.4641    0.1300    0.0000 H   0  0  0  0  0  0  0  0  0  0  0  0
    6.0201   -0.2869    0.0000 H   0  0  0  0  0  0  0  0  0  0  0  0
    6.8671   -0.0600    0.0000 H   0  0  0  0  0  0  0  0  0  0  0  0
    6.6401    0.7869    0.0000 H   0  0  0  0  0  0  0  0  0  0  0  0
    7.1962    1.1300    0.0000 H   0  0  0  0  0  0  0  0  0  0  0  0
    5.7932    3.5600    0.0000 H   0  0  0  0  0  0  0  0  0  0  0  0
    6.0010   -2.5600    0.0000 H   0  0  0  0  0  0  0  0  0  0  0  0
    3.1951   -2.5600    0.0000 H   0  0  0  0  0  0  0  0  0  0  0  0
    4.0420    4.2869    0.0000 H   0  0  0  0  0  0  0  0  0  0  0  0
    3.1951    4.0600    0.0000 H   0  0  0  0  0  0  0  0  0  0  0  0
    3.4220    3.2131    0.0000 H   0  0  0  0  0  0  0  0  0  0  0  0
    5.1350   -4.0600    0.0000 H   0  0  0  0  0  0  0  0  0  0  0  0
    6.6401    5.7869    0.0000 H   0  0  0  0  0  0  0  0  0  0  0  0
    5.7932    5.5600    0.0000 H   0  0  0  0  0  0  0  0  0  0  0  0
    6.0201    4.7131    0.0000 H   0  0  0  0  0  0  0  0  0  0  0  0
   10.1042    1.7131    0.0000 H   0  0  0  0  0  0  0  0  0  0  0  0
   10.3312    2.5600    0.0000 H   0  0  0  0  0  0  0  0  0  0  0  0
    9.4842    2.7869    0.0000 H   0  0  0  0  0  0  0  0  0  0  0  0
    9.5482    4.7500    0.0000 H   0  0  0  0  0  0  0  0  0  0  0  0
    8.9282    5.3700    0.0000 H   0  0  0  0  0  0  0  0  0  0  0  0
    8.3082    4.7500    0.0000 H   0  0  0  0  0  0  0  0  0  0  0  0
    6.8862   -1.7869    0.0000 H   0  0  0  0  0  0  0  0  0  0  0  0
    7.7331   -1.5600    0.0000 H   0  0  0  0  0  0  0  0  0  0  0  0
    7.5062   -0.7131    0.0000 H   0  0  0  0  0  0  0  0  0  0  0  0
    1.6900   -0.7131    0.0000 H   0  0  0  0  0  0  0  0  0  0  0  0
    1.4631   -1.5600    0.0000 H   0  0  0  0  0  0  0  0  0  0  0  0
    2.3100   -1.7869    0.0000 H   0  0  0  0  0  0  0  0  0  0  0  0
    3.1951   -3.9400    0.0000 H   0  0  0  0  0  0  0  0  0  0  0  0
    3.1120   -5.2500    0.0000 H   0  0  0  0  0  0  0  0  0  0  0  0
    3.7320   -5.8700    0.0000 H   0  0  0  0  0  0  0  0  0  0  0  0
    4.3520   -5.2500    0.0000 H   0  0  0  0  0  0  0  0  0  0  0  0
 10  1  1  1  0  0  0
  1 15  1  0  0  0  0
  9  2  1  6  0  0  0
  2 21  1  0  0  0  0
  3 16  1  0  0  0  0
  3 27  1  0  0  0  0
  4 17  1  0  0  0  0
  4 28  1  0  0  0  0
  5 18  1  0  0  0  0
  5 29  1  0  0  0  0
  6 19  1  0  0  0  0
  6 30  1  0  0  0  0
  7 20  1  0  0  0  0
  7 31  1  0  0  0  0
  8 21  2  0  0  0  0
  9 10  1  0  0  0  0
  9 11  1  0  0  0  0
  9 34  1  0  0  0  0
 10 12  1  0  0  0  0
 10 35  1  0  0  0  0
 11 13  2  0  0  0  0
 11 14  1  0  0  0  0
 12 36  1  0  0  0  0
 12 37  1  0  0  0  0
 12 38  1  0  0  0  0
 13 17  1  0  0  0  0
 13 39  1  0  0  0  0
 14 16  2  0  0  0  0
 14 40  1  0  0  0  0
 15 19  2  0  0  0  0
 15 20  1  0  0  0  0
 16 18  1  0  0  0  0
 17 18  2  0  0  0  0
 19 22  1  0  0  0  0
 20 23  2  0  0  0  0
 21 25  1  0  0  0  0
 22 24  2  0  0  0  0
 22 41  1  0  0  0  0
 23 24  1  0  0  0  0
 23 42  1  0  0  0  0
 24 26  1  0  0  0  0
 25 43  1  0  0  0  0
 25 44  1  0  0  0  0
 25 45  1  0  0  0  0
 26 32  2  0  0  0  0
 26 46  1  0  0  0  0
 27 47  1  0  0  0  0
 27 48  1  0  0  0  0
 27 49  1  0  0  0  0
 28 50  1  0  0  0  0
 28 51  1  0  0  0  0
 28 52  1  0  0  0  0
 29 53  1  0  0  0  0
 29 54  1  0  0  0  0
 29 55  1  0  0  0  0
 30 56  1  0  0  0  0
 30 57  1  0  0  0  0
 30 58  1  0  0  0  0
 31 59  1  0  0  0  0
 31 60  1  0  0  0  0
 31 61  1  0  0  0  0
 32 33  1  0  0  0  0
 32 62  1  0  0  0  0
 33 63  1  0  0  0  0
 33 64  1  0  0  0  0
 33 65  1  0  0  0  0
M  END
> <PUBCHEM_COMPOUND_CID>
76317426

> <PUBCHEM_COMPOUND_CANONICALIZED>
1

> <PUBCHEM_CACTVS_COMPLEXITY>
583

> <PUBCHEM_CACTVS_HBOND_ACCEPTOR>
8

> <PUBCHEM_CACTVS_HBOND_DONOR>
0

> <PUBCHEM_CACTVS_ROTATABLE_BOND>
12

> <PUBCHEM_CACTVS_SUBSKEYS>
AAADcfB4PAAAAAAAAAAAAAAAAAAAAAAAAAAwYAAAAAAAAAABQAAAGgAAAAAADBSgmAIyDoAABACIAiDSCAACCAAgIAAIiAAGiIgNJyKEMRqCOCKlwBUKqAfA4LwOIAABCAAAQABAAAIQAACAAAAAAAAAAA==

> <PUBCHEM_IUPAC_OPENEYE_NAME>
[(1R,2R)-2-[2,6-dimethoxy-4-[(E)-prop-1-enyl]phenoxy]-1-(3,4,5-trimethoxyphenyl)propyl] acetate

> <PUBCHEM_IUPAC_CAS_NAME>
acetic acid [(1R,2R)-2-[2,6-dimethoxy-4-[(E)-prop-1-enyl]phenoxy]-1-(3,4,5-trimethoxyphenyl)propyl] ester

> <PUBCHEM_IUPAC_NAME_MARKUP>
[(1<I>R</I>,2<I>R</I>)-2-[2,6-dimethoxy-4-[(<I>E</I>)-prop-1-enyl]phenoxy]-1-(3,4,5-trimethoxyphenyl)propyl] acetate

> <PUBCHEM_IUPAC_NAME>
[(1R,2R)-2-[2,6-dimethoxy-4-[(E)-prop-1-enyl]phenoxy]-1-(3,4,5-trimethoxyphenyl)propyl] acetate

> <PUBCHEM_IUPAC_SYSTEMATIC_NAME>
[(1R,2R)-2-[2,6-dimethoxy-4-[(E)-prop-1-enyl]phenoxy]-1-(3,4,5-trimethoxyphenyl)propyl] ethanoate

> <PUBCHEM_IUPAC_TRADITIONAL_NAME>
acetic acid [(1R,2R)-2-[2,6-dimethoxy-4-[(E)-prop-1-enyl]phenoxy]-1-(3,4,5-trimethoxyphenyl)propyl] ester

> <PUBCHEM_IUPAC_INCHI>
InChI=1S/C25H32O8/c1-9-10-17-11-19(27-4)25(20(12-17)28-5)32-15(2)23(33-16(3)26)18-13-21(29-6)24(31-8)22(14-18)30-7/h9-15,23H,1-8H3/b10-9+/t15-,23+/m1/s1

> <PUBCHEM_IUPAC_INCHIKEY>
KDVYEAVKWMGOPV-YDORHEMQSA-N

> <PUBCHEM_XLOGP3_AA>
4.6

> <PUBCHEM_EXACT_MASS>
460.20971797

> <PUBCHEM_MOLECULAR_FORMULA>
C25H32O8

> <PUBCHEM_MOLECULAR_WEIGHT>
460.5

> <PUBCHEM_OPENEYE_CAN_SMILES>
CC=CC1=CC(=C(C(=C1)OC)OC(C)C(C2=CC(=C(C(=C2)OC)OC)OC)OC(=O)C)OC

> <PUBCHEM_OPENEYE_ISO_SMILES>
C/C=C/C1=CC(=C(C(=C1)OC)O[C@H](C)[C@@H](C2=CC(=C(C(=C2)OC)OC)OC)OC(=O)C)OC

> <PUBCHEM_CACTVS_TPSA>
81.7

> <PUBCHEM_MONOISOTOPIC_WEIGHT>
460.20971797

> <PUBCHEM_TOTAL_CHARGE>
0

> <PUBCHEM_HEAVY_ATOM_COUNT>
33

> <PUBCHEM_ATOM_DEF_STEREO_COUNT>
2

> <PUBCHEM_ATOM_UDEF_STEREO_COUNT>
0

> <PUBCHEM_BOND_DEF_STEREO_COUNT>
1

> <PUBCHEM_BOND_UDEF_STEREO_COUNT>
0

> <PUBCHEM_ISOTOPIC_ATOM_COUNT>
0

> <PUBCHEM_COMPONENT_COUNT>
1

> <PUBCHEM_CACTVS_TAUTO_COUNT>
-1

> <PUBCHEM_COORDINATE_TYPE>
1
5
255

> <PUBCHEM_BONDANNOTATIONS>
10  1  5
11  13  8
11  14  8
13  17  8
14  16  8
15  19  8
15  20  8
16  18  8
17  18  8
19  22  8
9  2  6
20  23  8
22  24  8
23  24  8

$$$$
