343253
  -OEChem-05162309392D

 84 88  0     1  0  0  0  0  0999 V2000
   11.6550   -0.5917    0.0000 O   0  0  0  0  0  0  0  0  0  0  0  0
    9.4315    1.4742    0.0000 O   0  0  0  0  0  0  0  0  0  0  0  0
    6.5270    0.4083    0.0000 O   0  0  0  0  0  0  0  0  0  0  0  0
    3.7320   -3.1440    0.0000 O   0  0  0  0  0  0  0  0  0  0  0  0
   11.9712    1.9699    0.0000 O   0  0  0  0  0  0  0  0  0  0  0  0
    2.8718   -1.6407    0.0000 O   0  0  0  0  0  0  0  0  0  0  0  0
    9.1251   -1.0917    0.0000 C   0  0  3  0  0  0  0  0  0  0  0  0
    9.1251   -0.0917    0.0000 C   0  0  3  0  0  0  0  0  0  0  0  0
    8.2591   -1.5917    0.0000 C   0  0  3  0  0  0  0  0  0  0  0  0
    7.3931   -1.0917    0.0000 C   0  0  3  0  0  0  0  0  0  0  0  0
   10.0713    0.2131    0.0000 C   0  0  3  0  0  0  0  0  0  0  0  0
   10.0713   -1.3964    0.0000 C   0  0  0  0  0  0  0  0  0  0  0  0
   10.6550   -0.5917    0.0000 C   0  0  3  0  0  0  0  0  0  0  0  0
    8.2591    0.4083    0.0000 C   0  0  0  0  0  0  0  0  0  0  0  0
    6.4831   -1.5985    0.0000 C   0  0  3  0  0  0  0  0  0  0  0  0
    7.3931   -0.0917    0.0000 C   0  0  0  0  0  0  0  0  0  0  0  0
    8.2752   -2.6332    0.0000 C   0  0  0  0  0  0  0  0  0  0  0  0
    9.1251   -2.0917    0.0000 C   0  0  0  0  0  0  0  0  0  0  0  0
   10.3820    1.1636    0.0000 C   0  0  3  0  0  0  0  0  0  0  0  0
    9.1251    0.9083    0.0000 C   0  0  0  0  0  0  0  0  0  0  0  0
    6.4750   -2.6401    0.0000 C   0  0  0  0  0  0  0  0  0  0  0  0
    6.5270   -0.5917    0.0000 C   0  0  0  0  0  0  0  0  0  0  0  0
    5.5562   -1.0344    0.0000 C   0  0  0  0  0  0  0  0  0  0  0  0
    7.3771   -3.1609    0.0000 C   0  0  0  0  0  0  0  0  0  0  0  0
    5.5396   -3.1898    0.0000 C   0  0  0  0  0  0  0  0  0  0  0  0
    4.6084   -1.5624    0.0000 C   0  0  0  0  0  0  0  0  0  0  0  0
    4.6000   -2.6473    0.0000 C   0  0  3  0  0  0  0  0  0  0  0  0
   11.1900    0.5744    0.0000 C   0  0  0  0  0  0  0  0  0  0  0  0
   10.9712    1.9716    0.0000 C   0  0  0  0  0  0  0  0  0  0  0  0
    5.0430   -4.0578    0.0000 C   0  0  0  0  0  0  0  0  0  0  0  0
    6.0430   -4.0539    0.0000 C   0  0  0  0  0  0  0  0  0  0  0  0
    9.4332    2.4742    0.0000 C   0  0  0  0  0  0  0  0  0  0  0  0
   10.3848    2.7816    0.0000 C   0  0  0  0  0  0  0  0  0  0  0  0
    8.6252    3.0634    0.0000 C   0  0  0  0  0  0  0  0  0  0  0  0
    2.8680   -2.6407    0.0000 C   0  0  0  0  0  0  0  0  0  0  0  0
    8.7315    4.0578    0.0000 C   0  0  0  0  0  0  0  0  0  0  0  0
    7.7110    2.6583    0.0000 C   0  0  0  0  0  0  0  0  0  0  0  0
    2.0000   -3.1373    0.0000 C   0  0  0  0  0  0  0  0  0  0  0  0
    8.7984   -1.8975    0.0000 H   0  0  0  0  0  0  0  0  0  0  0  0
   10.6838    0.3093    0.0000 H   0  0  0  0  0  0  0  0  0  0  0  0
    9.8203   -1.9633    0.0000 H   0  0  0  0  0  0  0  0  0  0  0  0
   10.6087   -1.7056    0.0000 H   0  0  0  0  0  0  0  0  0  0  0  0
   10.9367   -1.1440    0.0000 H   0  0  0  0  0  0  0  0  0  0  0  0
    8.6576    0.8833    0.0000 H   0  0  0  0  0  0  0  0  0  0  0  0
    7.8606    0.8833    0.0000 H   0  0  0  0  0  0  0  0  0  0  0  0
    7.0164   -1.9147    0.0000 H   0  0  0  0  0  0  0  0  0  0  0  0
    8.4932   -3.2136    0.0000 H   0  0  0  0  0  0  0  0  0  0  0  0
    8.8843   -2.5177    0.0000 H   0  0  0  0  0  0  0  0  0  0  0  0
    8.5051   -2.0917    0.0000 H   0  0  0  0  0  0  0  0  0  0  0  0
    9.1251   -2.7117    0.0000 H   0  0  0  0  0  0  0  0  0  0  0  0
    9.7451   -2.0917    0.0000 H   0  0  0  0  0  0  0  0  0  0  0  0
    9.7451    0.9083    0.0000 H   0  0  0  0  0  0  0  0  0  0  0  0
    9.1251    1.5283    0.0000 H   0  0  0  0  0  0  0  0  0  0  0  0
    8.5051    0.9083    0.0000 H   0  0  0  0  0  0  0  0  0  0  0  0
    6.8370   -0.0547    0.0000 H   0  0  0  0  0  0  0  0  0  0  0  0
    5.9901   -0.2817    0.0000 H   0  0  0  0  0  0  0  0  0  0  0  0
    6.2171   -1.1286    0.0000 H   0  0  0  0  0  0  0  0  0  0  0  0
    5.9644   -0.5678    0.0000 H   0  0  0  0  0  0  0  0  0  0  0  0
    5.1663   -0.5524    0.0000 H   0  0  0  0  0  0  0  0  0  0  0  0
    7.3795   -3.7809    0.0000 H   0  0  0  0  0  0  0  0  0  0  0  0
    4.4038   -0.9771    0.0000 H   0  0  0  0  0  0  0  0  0  0  0  0
    3.9967   -1.6638    0.0000 H   0  0  0  0  0  0  0  0  0  0  0  0
    4.0648   -2.3342    0.0000 H   0  0  0  0  0  0  0  0  0  0  0  0
   10.8247    0.0734    0.0000 H   0  0  0  0  0  0  0  0  0  0  0  0
   11.6910    0.2091    0.0000 H   0  0  0  0  0  0  0  0  0  0  0  0
   11.5553    1.0754    0.0000 H   0  0  0  0  0  0  0  0  0  0  0  0
   11.9650   -1.1286    0.0000 H   0  0  0  0  0  0  0  0  0  0  0  0
    4.5048   -3.7498    0.0000 H   0  0  0  0  0  0  0  0  0  0  0  0
    4.7350   -4.5959    0.0000 H   0  0  0  0  0  0  0  0  0  0  0  0
    5.5811   -4.3657    0.0000 H   0  0  0  0  0  0  0  0  0  0  0  0
    5.5072   -4.3660    0.0000 H   0  0  0  0  0  0  0  0  0  0  0  0
    6.3550   -4.5897    0.0000 H   0  0  0  0  0  0  0  0  0  0  0  0
    6.5787   -3.7419    0.0000 H   0  0  0  0  0  0  0  0  0  0  0  0
   10.5774    3.3710    0.0000 H   0  0  0  0  0  0  0  0  0  0  0  0
    8.1243    3.4287    0.0000 H   0  0  0  0  0  0  0  0  0  0  0  0
    9.3480    3.9919    0.0000 H   0  0  0  0  0  0  0  0  0  0  0  0
    8.7973    4.6743    0.0000 H   0  0  0  0  0  0  0  0  0  0  0  0
    8.1150    4.1236    0.0000 H   0  0  0  0  0  0  0  0  0  0  0  0
    7.4598    3.2251    0.0000 H   0  0  0  0  0  0  0  0  0  0  0  0
    7.1441    2.4071    0.0000 H   0  0  0  0  0  0  0  0  0  0  0  0
    7.9622    2.0914    0.0000 H   0  0  0  0  0  0  0  0  0  0  0  0
    1.6921   -2.5992    0.0000 H   0  0  0  0  0  0  0  0  0  0  0  0
    1.4619   -3.4452    0.0000 H   0  0  0  0  0  0  0  0  0  0  0  0
    2.3079   -3.6754    0.0000 H   0  0  0  0  0  0  0  0  0  0  0  0
  1 13  1  0  0  0  0
  1 67  1  0  0  0  0
  2 19  1  0  0  0  0
  2 32  1  0  0  0  0
  3 16  2  0  0  0  0
  4 27  1  0  0  0  0
  4 35  1  0  0  0  0
  5 29  2  0  0  0  0
  6 35  2  0  0  0  0
  7  8  1  0  0  0  0
  7  9  1  0  0  0  0
  7 12  1  0  0  0  0
  7 18  1  0  0  0  0
  8 11  1  0  0  0  0
  8 14  1  0  0  0  0
  8 20  1  0  0  0  0
  9 10  1  0  0  0  0
  9 17  1  0  0  0  0
  9 39  1  0  0  0  0
 10 15  1  0  0  0  0
 10 16  1  0  0  0  0
 10 22  1  0  0  0  0
 11 13  1  0  0  0  0
 11 19  1  0  0  0  0
 11 40  1  0  0  0  0
 12 13  1  0  0  0  0
 12 41  1  0  0  0  0
 12 42  1  0  0  0  0
 13 43  1  0  0  0  0
 14 16  1  0  0  0  0
 14 44  1  0  0  0  0
 14 45  1  0  0  0  0
 15 21  1  0  0  0  0
 15 23  1  0  0  0  0
 15 46  1  0  0  0  0
 17 24  1  0  0  0  0
 17 47  1  0  0  0  0
 17 48  1  0  0  0  0
 18 49  1  0  0  0  0
 18 50  1  0  0  0  0
 18 51  1  0  0  0  0
 19 28  1  0  0  0  0
 19 29  1  0  0  0  0
 20 52  1  0  0  0  0
 20 53  1  0  0  0  0
 20 54  1  0  0  0  0
 21 24  2  0  0  0  0
 21 25  1  0  0  0  0
 22 55  1  0  0  0  0
 22 56  1  0  0  0  0
 22 57  1  0  0  0  0
 23 26  1  0  0  0  0
 23 58  1  0  0  0  0
 23 59  1  0  0  0  0
 24 60  1  0  0  0  0
 25 27  1  0  0  0  0
 25 30  1  0  0  0  0
 25 31  1  0  0  0  0
 26 27  1  0  0  0  0
 26 61  1  0  0  0  0
 26 62  1  0  0  0  0
 27 63  1  0  0  0  0
 28 64  1  0  0  0  0
 28 65  1  0  0  0  0
 28 66  1  0  0  0  0
 29 33  1  0  0  0  0
 30 68  1  0  0  0  0
 30 69  1  0  0  0  0
 30 70  1  0  0  0  0
 31 71  1  0  0  0  0
 31 72  1  0  0  0  0
 31 73  1  0  0  0  0
 32 33  2  0  0  0  0
 32 34  1  0  0  0  0
 33 74  1  0  0  0  0
 34 36  1  0  0  0  0
 34 37  1  0  0  0  0
 34 75  1  0  0  0  0
 35 38  1  0  0  0  0
 36 76  1  0  0  0  0
 36 77  1  0  0  0  0
 36 78  1  0  0  0  0
 37 79  1  0  0  0  0
 37 80  1  0  0  0  0
 37 81  1  0  0  0  0
 38 82  1  0  0  0  0
 38 83  1  0  0  0  0
 38 84  1  0  0  0  0
M  END
> <PUBCHEM_COMPOUND_CID>
343253

> <PUBCHEM_COMPOUND_CANONICALIZED>
1

> <PUBCHEM_CACTVS_COMPLEXITY>
1150

> <PUBCHEM_CACTVS_HBOND_ACCEPTOR>
6

> <PUBCHEM_CACTVS_HBOND_DONOR>
1

> <PUBCHEM_CACTVS_ROTATABLE_BOND>
4

> <PUBCHEM_CACTVS_SUBSKEYS>
AAADcfB8OAAAAAAAAAAAAAAAAAAAAYIAAAAwYIAAAAAAAGCAAAAAGgAACAAAD1SggAICCAAABgCIAqDSCAIACAAgIAAACAFAAEgAEBIAAQQCQAAFwAAIAQOKzPDPgAAAAAAAAADAAAQAADAAAYAADAAAAA==

> <PUBCHEM_IUPAC_OPENEYE_NAME>
[16-hydroxy-17-(5-isopropyl-2-methyl-3-oxo-2-furyl)-4,4,9,13,14-pentamethyl-11-oxo-1,2,3,7,8,10,12,15,16,17-decahydrocyclopenta[a]phenanthren-3-yl] acetate

> <PUBCHEM_IUPAC_CAS_NAME>
acetic acid [16-hydroxy-4,4,9,13,14-pentamethyl-17-(2-methyl-3-oxo-5-propan-2-yl-2-furanyl)-11-oxo-1,2,3,7,8,10,12,15,16,17-decahydrocyclopenta[a]phenanthren-3-yl] ester

> <PUBCHEM_IUPAC_NAME_MARKUP>
[16-hydroxy-4,4,9,13,14-pentamethyl-17-(2-methyl-3-oxo-5-propan-2-ylfuran-2-yl)-11-oxo-1,2,3,7,8,10,12,15,16,17-decahydrocyclopenta[a]phenanthren-3-yl] acetate

> <PUBCHEM_IUPAC_NAME>
[16-hydroxy-4,4,9,13,14-pentamethyl-17-(2-methyl-3-oxo-5-propan-2-ylfuran-2-yl)-11-oxo-1,2,3,7,8,10,12,15,16,17-decahydrocyclopenta[a]phenanthren-3-yl] acetate

> <PUBCHEM_IUPAC_SYSTEMATIC_NAME>
[4,4,9,13,14-pentamethyl-17-(2-methyl-3-oxidanylidene-5-propan-2-yl-furan-2-yl)-16-oxidanyl-11-oxidanylidene-1,2,3,7,8,10,12,15,16,17-decahydrocyclopenta[a]phenanthren-3-yl] ethanoate

> <PUBCHEM_IUPAC_TRADITIONAL_NAME>
acetic acid [16-hydroxy-17-(5-isopropyl-3-keto-2-methyl-2-furyl)-11-keto-4,4,9,13,14-pentamethyl-1,2,3,7,8,10,12,15,16,17-decahydrocyclopenta[a]phenanthren-3-yl] ester

> <PUBCHEM_IUPAC_INCHI>
InChI=1S/C32H46O6/c1-17(2)22-14-24(35)32(9,38-22)27-21(34)15-29(6)23-12-10-19-20(31(23,8)25(36)16-30(27,29)7)11-13-26(28(19,4)5)37-18(3)33/h10,14,17,20-21,23,26-27,34H,11-13,15-16H2,1-9H3

> <PUBCHEM_IUPAC_INCHIKEY>
OAQPMBCYFIHMTG-UHFFFAOYSA-N

> <PUBCHEM_XLOGP3_AA>
4.7

> <PUBCHEM_EXACT_MASS>
526.32943918

> <PUBCHEM_MOLECULAR_FORMULA>
C32H46O6

> <PUBCHEM_MOLECULAR_WEIGHT>
526.7

> <PUBCHEM_OPENEYE_CAN_SMILES>
CC(C)C1=CC(=O)C(O1)(C)C2C(CC3(C2(CC(=O)C4(C3CC=C5C4CCC(C5(C)C)OC(=O)C)C)C)C)O

> <PUBCHEM_OPENEYE_ISO_SMILES>
CC(C)C1=CC(=O)C(O1)(C)C2C(CC3(C2(CC(=O)C4(C3CC=C5C4CCC(C5(C)C)OC(=O)C)C)C)C)O

> <PUBCHEM_CACTVS_TPSA>
89.9

> <PUBCHEM_MONOISOTOPIC_WEIGHT>
526.32943918

> <PUBCHEM_TOTAL_CHARGE>
0

> <PUBCHEM_HEAVY_ATOM_COUNT>
38

> <PUBCHEM_ATOM_DEF_STEREO_COUNT>
0

> <PUBCHEM_ATOM_UDEF_STEREO_COUNT>
9

> <PUBCHEM_BOND_DEF_STEREO_COUNT>
0

> <PUBCHEM_BOND_UDEF_STEREO_COUNT>
0

> <PUBCHEM_ISOTOPIC_ATOM_COUNT>
0

> <PUBCHEM_COMPONENT_COUNT>
1

> <PUBCHEM_CACTVS_TAUTO_COUNT>
-1

> <PUBCHEM_COORDINATE_TYPE>
1
5
255

> <PUBCHEM_BONDANNOTATIONS>
13  1  3
10  22  3
11  19  3
15  23  3
19  28  3
27  4  3
7  18  3
8  20  3
9  17  3

$$$$
