23626636
  -OEChem-05162309552D

 77 77  0     1  0  0  0  0  0999 V2000
   12.3923   -2.6900    0.0000 O   0  0  0  0  0  0  0  0  0  0  0  0
    2.8660    1.8100    0.0000 O   0  0  0  0  0  0  0  0  0  0  0  0
    4.5981    4.8100    0.0000 O   0  0  0  0  0  0  0  0  0  0  0  0
   14.1244   -2.6900    0.0000 O   0  0  0  0  0  0  0  0  0  0  0  0
    3.7320    0.3100    0.0000 O   0  0  0  0  0  0  0  0  0  0  0  0
    6.3301    4.8100    0.0000 O   0  0  0  0  0  0  0  0  0  0  0  0
    7.1962   -0.6900    0.0000 C   0  0  0  0  0  0  0  0  0  0  0  0
    7.1962    0.3100    0.0000 C   0  0  0  0  0  0  0  0  0  0  0  0
    8.0622   -1.1900    0.0000 C   0  0  0  0  0  0  0  0  0  0  0  0
    6.3301    0.8100    0.0000 C   0  0  0  0  0  0  0  0  0  0  0  0
    8.0622   -2.1900    0.0000 C   0  0  0  0  0  0  0  0  0  0  0  0
    6.3301    1.8100    0.0000 C   0  0  0  0  0  0  0  0  0  0  0  0
    8.9282   -2.6900    0.0000 C   0  0  0  0  0  0  0  0  0  0  0  0
   11.5263   -4.1900    0.0000 C   0  0  0  0  0  0  0  0  0  0  0  0
   12.3923   -3.6900    0.0000 C   0  0  1  0  0  0  0  0  0  0  0  0
   10.6603   -3.6900    0.0000 C   0  0  0  0  0  0  0  0  0  0  0  0
    5.4641    2.3100    0.0000 C   0  0  0  0  0  0  0  0  0  0  0  0
    8.9282   -3.6900    0.0000 C   0  0  0  0  0  0  0  0  0  0  0  0
    9.7942   -4.1900    0.0000 C   0  0  0  0  0  0  0  0  0  0  0  0
   13.2583   -4.1900    0.0000 C   0  0  0  0  0  0  0  0  0  0  0  0
    5.4641    3.3100    0.0000 C   0  0  0  0  0  0  0  0  0  0  0  0
    4.5981    1.8100    0.0000 C   0  0  0  0  0  0  0  0  0  0  0  0
   13.2583   -5.1900    0.0000 C   0  0  0  0  0  0  0  0  0  0  0  0
    3.7320    2.3100    0.0000 C   0  0  0  0  0  0  0  0  0  0  0  0
    4.5981    3.8100    0.0000 C   0  0  0  0  0  0  0  0  0  0  0  0
    3.7320    3.3100    0.0000 C   0  0  0  0  0  0  0  0  0  0  0  0
   14.1244   -5.6900    0.0000 C   0  0  0  0  0  0  0  0  0  0  0  0
   13.2583   -2.1900    0.0000 C   0  0  0  0  0  0  0  0  0  0  0  0
   14.9904   -5.1900    0.0000 C   0  0  0  0  0  0  0  0  0  0  0  0
   13.2583   -1.1900    0.0000 C   0  0  0  0  0  0  0  0  0  0  0  0
   15.8564   -5.6900    0.0000 C   0  0  0  0  0  0  0  0  0  0  0  0
    2.8660    0.8100    0.0000 C   0  0  0  0  0  0  0  0  0  0  0  0
    5.4641    5.3100    0.0000 C   0  0  0  0  0  0  0  0  0  0  0  0
    2.0000    0.3100    0.0000 C   0  0  0  0  0  0  0  0  0  0  0  0
    5.4641    6.3100    0.0000 C   0  0  0  0  0  0  0  0  0  0  0  0
    6.5856   -0.5823    0.0000 H   0  0  0  0  0  0  0  0  0  0  0  0
    6.9841   -1.2726    0.0000 H   0  0  0  0  0  0  0  0  0  0  0  0
    7.8067    0.2023    0.0000 H   0  0  0  0  0  0  0  0  0  0  0  0
    7.4082    0.8926    0.0000 H   0  0  0  0  0  0  0  0  0  0  0  0
    8.6728   -1.2977    0.0000 H   0  0  0  0  0  0  0  0  0  0  0  0
    8.2742   -0.6074    0.0000 H   0  0  0  0  0  0  0  0  0  0  0  0
    5.7196    0.9177    0.0000 H   0  0  0  0  0  0  0  0  0  0  0  0
    6.1181    0.2274    0.0000 H   0  0  0  0  0  0  0  0  0  0  0  0
    7.4516   -2.0823    0.0000 H   0  0  0  0  0  0  0  0  0  0  0  0
    7.8501   -2.7726    0.0000 H   0  0  0  0  0  0  0  0  0  0  0  0
    6.9407    1.7023    0.0000 H   0  0  0  0  0  0  0  0  0  0  0  0
    6.5422    2.3926    0.0000 H   0  0  0  0  0  0  0  0  0  0  0  0
    9.5388   -2.7977    0.0000 H   0  0  0  0  0  0  0  0  0  0  0  0
    9.1403   -2.1074    0.0000 H   0  0  0  0  0  0  0  0  0  0  0  0
   11.1278   -4.6650    0.0000 H   0  0  0  0  0  0  0  0  0  0  0  0
   11.9248   -4.6650    0.0000 H   0  0  0  0  0  0  0  0  0  0  0  0
   11.8554   -3.3800    0.0000 H   0  0  0  0  0  0  0  0  0  0  0  0
   11.0588   -3.2151    0.0000 H   0  0  0  0  0  0  0  0  0  0  0  0
   10.2617   -3.2151    0.0000 H   0  0  0  0  0  0  0  0  0  0  0  0
    8.3913   -4.0000    0.0000 H   0  0  0  0  0  0  0  0  0  0  0  0
    9.7942   -4.8100    0.0000 H   0  0  0  0  0  0  0  0  0  0  0  0
   13.8689   -4.2977    0.0000 H   0  0  0  0  0  0  0  0  0  0  0  0
   13.4704   -3.6074    0.0000 H   0  0  0  0  0  0  0  0  0  0  0  0
    6.0010    3.6200    0.0000 H   0  0  0  0  0  0  0  0  0  0  0  0
    4.5981    1.1900    0.0000 H   0  0  0  0  0  0  0  0  0  0  0  0
   12.7214   -5.5000    0.0000 H   0  0  0  0  0  0  0  0  0  0  0  0
    3.1951    3.6200    0.0000 H   0  0  0  0  0  0  0  0  0  0  0  0
   14.1244   -6.3100    0.0000 H   0  0  0  0  0  0  0  0  0  0  0  0
   15.3889   -4.7150    0.0000 H   0  0  0  0  0  0  0  0  0  0  0  0
   14.5919   -4.7150    0.0000 H   0  0  0  0  0  0  0  0  0  0  0  0
   13.8783   -1.1900    0.0000 H   0  0  0  0  0  0  0  0  0  0  0  0
   13.2583   -0.5700    0.0000 H   0  0  0  0  0  0  0  0  0  0  0  0
   12.6383   -1.1900    0.0000 H   0  0  0  0  0  0  0  0  0  0  0  0
   15.5464   -6.2269    0.0000 H   0  0  0  0  0  0  0  0  0  0  0  0
   16.3933   -6.0000    0.0000 H   0  0  0  0  0  0  0  0  0  0  0  0
   16.1664   -5.1531    0.0000 H   0  0  0  0  0  0  0  0  0  0  0  0
    1.6900    0.8469    0.0000 H   0  0  0  0  0  0  0  0  0  0  0  0
    1.4631    0.0000    0.0000 H   0  0  0  0  0  0  0  0  0  0  0  0
    2.3100   -0.2269    0.0000 H   0  0  0  0  0  0  0  0  0  0  0  0
    6.0841    6.3100    0.0000 H   0  0  0  0  0  0  0  0  0  0  0  0
    5.4641    6.9300    0.0000 H   0  0  0  0  0  0  0  0  0  0  0  0
    4.8441    6.3100    0.0000 H   0  0  0  0  0  0  0  0  0  0  0  0
 15  1  1  6  0  0  0
  1 28  1  0  0  0  0
  2 24  1  0  0  0  0
  2 32  1  0  0  0  0
  3 25  1  0  0  0  0
  3 33  1  0  0  0  0
  4 28  2  0  0  0  0
  5 32  2  0  0  0  0
  6 33  2  0  0  0  0
  7  8  1  0  0  0  0
  7  9  1  0  0  0  0
  7 36  1  0  0  0  0
  7 37  1  0  0  0  0
  8 10  1  0  0  0  0
  8 38  1  0  0  0  0
  8 39  1  0  0  0  0
  9 11  1  0  0  0  0
  9 40  1  0  0  0  0
  9 41  1  0  0  0  0
 10 12  1  0  0  0  0
 10 42  1  0  0  0  0
 10 43  1  0  0  0  0
 11 13  1  0  0  0  0
 11 44  1  0  0  0  0
 11 45  1  0  0  0  0
 12 17  1  0  0  0  0
 12 46  1  0  0  0  0
 12 47  1  0  0  0  0
 13 18  1  0  0  0  0
 13 48  1  0  0  0  0
 13 49  1  0  0  0  0
 14 15  1  0  0  0  0
 14 16  1  0  0  0  0
 14 50  1  0  0  0  0
 14 51  1  0  0  0  0
 15 20  1  0  0  0  0
 15 52  1  0  0  0  0
 16 19  1  0  0  0  0
 16 53  1  0  0  0  0
 16 54  1  0  0  0  0
 17 21  2  0  0  0  0
 17 22  1  0  0  0  0
 18 19  2  0  0  0  0
 18 55  1  0  0  0  0
 19 56  1  0  0  0  0
 20 23  1  0  0  0  0
 20 57  1  0  0  0  0
 20 58  1  0  0  0  0
 21 25  1  0  0  0  0
 21 59  1  0  0  0  0
 22 24  2  0  0  0  0
 22 60  1  0  0  0  0
 23 27  2  0  0  0  0
 23 61  1  0  0  0  0
 24 26  1  0  0  0  0
 25 26  2  0  0  0  0
 26 62  1  0  0  0  0
 27 29  1  0  0  0  0
 27 63  1  0  0  0  0
 28 30  1  0  0  0  0
 29 31  1  0  0  0  0
 29 64  1  0  0  0  0
 29 65  1  0  0  0  0
 30 66  1  0  0  0  0
 30 67  1  0  0  0  0
 30 68  1  0  0  0  0
 31 69  1  0  0  0  0
 31 70  1  0  0  0  0
 31 71  1  0  0  0  0
 32 34  1  0  0  0  0
 33 35  1  0  0  0  0
 34 72  1  0  0  0  0
 34 73  1  0  0  0  0
 34 74  1  0  0  0  0
 35 75  1  0  0  0  0
 35 76  1  0  0  0  0
 35 77  1  0  0  0  0
M  END
> <PUBCHEM_COMPOUND_CID>
23626636

> <PUBCHEM_COMPOUND_CANONICALIZED>
1

> <PUBCHEM_CACTVS_COMPLEXITY>
644

> <PUBCHEM_CACTVS_HBOND_ACCEPTOR>
6

> <PUBCHEM_CACTVS_HBOND_DONOR>
0

> <PUBCHEM_CACTVS_ROTATABLE_BOND>
20

> <PUBCHEM_CACTVS_SUBSKEYS>
AAADcfB4OAAAAAAAAAAAAAAAAAAAAAAAAAAwAAAAAAAAAAABAAAAGgAAAAAADBSgmAIyDoAABACIAiDSCAACCAAgIAAIiAAGCIgMJyKEMRqCOiClwBUIqAeA4PwOAAABCAAAAAAAAAIQAAAAAAAAAAAAAA==

> <PUBCHEM_IUPAC_OPENEYE_NAME>
[3-acetoxy-5-[(8Z,12S,14Z)-12-acetoxyheptadeca-8,14-dienyl]phenyl] acetate

> <PUBCHEM_IUPAC_CAS_NAME>
acetic acid [3-acetyloxy-5-[(8Z,12S,14Z)-12-acetyloxyheptadeca-8,14-dienyl]phenyl] ester

> <PUBCHEM_IUPAC_NAME_MARKUP>
[3-acetyloxy-5-[(8<I>Z</I>,12<I>S</I>,14<I>Z</I>)-12-acetyloxyheptadeca-8,14-dienyl]phenyl] acetate

> <PUBCHEM_IUPAC_NAME>
[3-acetyloxy-5-[(8Z,12S,14Z)-12-acetyloxyheptadeca-8,14-dienyl]phenyl] acetate

> <PUBCHEM_IUPAC_SYSTEMATIC_NAME>
[3-acetyloxy-5-[(8Z,12S,14Z)-12-acetyloxyheptadeca-8,14-dienyl]phenyl] ethanoate

> <PUBCHEM_IUPAC_TRADITIONAL_NAME>
acetic acid [3-acetoxy-5-[(8Z,12S,14Z)-12-acetoxyheptadeca-8,14-dienyl]phenyl] ester

> <PUBCHEM_IUPAC_INCHI>
InChI=1S/C29H42O6/c1-5-6-14-18-27(33-23(2)30)19-16-13-11-9-7-8-10-12-15-17-26-20-28(34-24(3)31)22-29(21-26)35-25(4)32/h6,11,13-14,20-22,27H,5,7-10,12,15-19H2,1-4H3/b13-11-,14-6-/t27-/m1/s1

> <PUBCHEM_IUPAC_INCHIKEY>
PTZFNLYNCDMJGP-GCWZZQGZSA-N

> <PUBCHEM_XLOGP3_AA>
7.7

> <PUBCHEM_EXACT_MASS>
486.29813906

> <PUBCHEM_MOLECULAR_FORMULA>
C29H42O6

> <PUBCHEM_MOLECULAR_WEIGHT>
486.6

> <PUBCHEM_OPENEYE_CAN_SMILES>
CCC=CCC(CCC=CCCCCCCCC1=CC(=CC(=C1)OC(=O)C)OC(=O)C)OC(=O)C

> <PUBCHEM_OPENEYE_ISO_SMILES>
CC/C=C\C[C@H](CC/C=C\CCCCCCCC1=CC(=CC(=C1)OC(=O)C)OC(=O)C)OC(=O)C

> <PUBCHEM_CACTVS_TPSA>
78.9

> <PUBCHEM_MONOISOTOPIC_WEIGHT>
486.29813906

> <PUBCHEM_TOTAL_CHARGE>
0

> <PUBCHEM_HEAVY_ATOM_COUNT>
35

> <PUBCHEM_ATOM_DEF_STEREO_COUNT>
1

> <PUBCHEM_ATOM_UDEF_STEREO_COUNT>
0

> <PUBCHEM_BOND_DEF_STEREO_COUNT>
2

> <PUBCHEM_BOND_UDEF_STEREO_COUNT>
0

> <PUBCHEM_ISOTOPIC_ATOM_COUNT>
0

> <PUBCHEM_COMPONENT_COUNT>
1

> <PUBCHEM_CACTVS_TAUTO_COUNT>
-1

> <PUBCHEM_COORDINATE_TYPE>
1
5
255

> <PUBCHEM_BONDANNOTATIONS>
15  1  6
17  21  8
17  22  8
21  25  8
22  24  8
24  26  8
25  26  8

$$$$
