100450
  -OEChem-05162309062D

 52 53  0     0  0  0  0  0  0999 V2000
    6.0010    0.5600    0.0000 O   0  0  0  0  0  0  0  0  0  0  0  0
    2.5369    0.5600    0.0000 O   0  0  0  0  0  0  0  0  0  0  0  0
    2.5369   -2.4400    0.0000 O   0  0  0  0  0  0  0  0  0  0  0  0
    5.1350   -2.9400    0.0000 O   0  0  0  0  0  0  0  0  0  0  0  0
    6.8671   -0.9400    0.0000 O   0  0  0  0  0  0  0  0  0  0  0  0
    8.5991   -0.9400    0.0000 O   0  0  0  0  0  0  0  0  0  0  0  0
   10.3312    2.0600    0.0000 O   0  0  0  0  0  0  0  0  0  0  0  0
    4.2690    0.5600    0.0000 C   0  0  0  0  0  0  0  0  0  0  0  0
    3.4030   -0.9400    0.0000 C   0  0  0  0  0  0  0  0  0  0  0  0
    4.2690   -1.4400    0.0000 C   0  0  0  0  0  0  0  0  0  0  0  0
    3.4030    0.0600    0.0000 C   0  0  0  0  0  0  0  0  0  0  0  0
    5.1350    0.0600    0.0000 C   0  0  0  0  0  0  0  0  0  0  0  0
    4.2690    1.5600    0.0000 C   0  0  0  0  0  0  0  0  0  0  0  0
    5.1350   -0.9400    0.0000 C   0  0  0  0  0  0  0  0  0  0  0  0
    2.5369   -1.4400    0.0000 C   0  0  0  0  0  0  0  0  0  0  0  0
    4.2690   -2.4400    0.0000 C   0  0  0  0  0  0  0  0  0  0  0  0
    3.4030    2.0600    0.0000 C   0  0  0  0  0  0  0  0  0  0  0  0
    3.4030    3.0600    0.0000 C   0  0  0  0  0  0  0  0  0  0  0  0
    7.7331    0.5600    0.0000 C   0  0  0  0  0  0  0  0  0  0  0  0
    6.8671    0.0600    0.0000 C   0  0  0  0  0  0  0  0  0  0  0  0
    7.7331    1.5600    0.0000 C   0  0  0  0  0  0  0  0  0  0  0  0
    8.5991    0.0600    0.0000 C   0  0  0  0  0  0  0  0  0  0  0  0
    2.5369    3.5600    0.0000 C   0  0  0  0  0  0  0  0  0  0  0  0
    4.2690    3.5600    0.0000 C   0  0  0  0  0  0  0  0  0  0  0  0
    8.5991    2.0600    0.0000 C   0  0  0  0  0  0  0  0  0  0  0  0
    9.4651    0.5600    0.0000 C   0  0  0  0  0  0  0  0  0  0  0  0
    6.8671    2.0600    0.0000 C   0  0  0  0  0  0  0  0  0  0  0  0
    9.4651    1.5600    0.0000 C   0  0  0  0  0  0  0  0  0  0  0  0
    4.8796    1.4523    0.0000 H   0  0  0  0  0  0  0  0  0  0  0  0
    4.4810    2.1426    0.0000 H   0  0  0  0  0  0  0  0  0  0  0  0
    5.6720   -1.2500    0.0000 H   0  0  0  0  0  0  0  0  0  0  0  0
    2.3249   -0.8574    0.0000 H   0  0  0  0  0  0  0  0  0  0  0  0
    1.9264   -1.5477    0.0000 H   0  0  0  0  0  0  0  0  0  0  0  0
    3.6584   -2.3323    0.0000 H   0  0  0  0  0  0  0  0  0  0  0  0
    4.0569   -3.0226    0.0000 H   0  0  0  0  0  0  0  0  0  0  0  0
    2.8660    1.7500    0.0000 H   0  0  0  0  0  0  0  0  0  0  0  0
    2.0000    0.2500    0.0000 H   0  0  0  0  0  0  0  0  0  0  0  0
    2.8469    4.0969    0.0000 H   0  0  0  0  0  0  0  0  0  0  0  0
    2.0000    3.8700    0.0000 H   0  0  0  0  0  0  0  0  0  0  0  0
    2.2269    3.0231    0.0000 H   0  0  0  0  0  0  0  0  0  0  0  0
    4.5790    3.0231    0.0000 H   0  0  0  0  0  0  0  0  0  0  0  0
    4.8059    3.8700    0.0000 H   0  0  0  0  0  0  0  0  0  0  0  0
    3.9590    4.0969    0.0000 H   0  0  0  0  0  0  0  0  0  0  0  0
    8.5991    2.6800    0.0000 H   0  0  0  0  0  0  0  0  0  0  0  0
    2.0000   -2.7500    0.0000 H   0  0  0  0  0  0  0  0  0  0  0  0
   10.0021    0.2500    0.0000 H   0  0  0  0  0  0  0  0  0  0  0  0
    7.1771    2.5969    0.0000 H   0  0  0  0  0  0  0  0  0  0  0  0
    6.3301    2.3700    0.0000 H   0  0  0  0  0  0  0  0  0  0  0  0
    6.5571    1.5231    0.0000 H   0  0  0  0  0  0  0  0  0  0  0  0
    5.1350   -3.5600    0.0000 H   0  0  0  0  0  0  0  0  0  0  0  0
    9.1360   -1.2500    0.0000 H   0  0  0  0  0  0  0  0  0  0  0  0
   10.8681    1.7500    0.0000 H   0  0  0  0  0  0  0  0  0  0  0  0
  1 12  1  0  0  0  0
  1 20  1  0  0  0  0
  2 11  1  0  0  0  0
  2 37  1  0  0  0  0
  3 15  1  0  0  0  0
  3 45  1  0  0  0  0
  4 16  1  0  0  0  0
  4 50  1  0  0  0  0
  5 20  2  0  0  0  0
  6 22  1  0  0  0  0
  6 51  1  0  0  0  0
  7 28  1  0  0  0  0
  7 52  1  0  0  0  0
  8 11  1  0  0  0  0
  8 12  2  0  0  0  0
  8 13  1  0  0  0  0
  9 10  1  0  0  0  0
  9 11  2  0  0  0  0
  9 15  1  0  0  0  0
 10 14  2  0  0  0  0
 10 16  1  0  0  0  0
 12 14  1  0  0  0  0
 13 17  1  0  0  0  0
 13 29  1  0  0  0  0
 13 30  1  0  0  0  0
 14 31  1  0  0  0  0
 15 32  1  0  0  0  0
 15 33  1  0  0  0  0
 16 34  1  0  0  0  0
 16 35  1  0  0  0  0
 17 18  2  0  0  0  0
 17 36  1  0  0  0  0
 18 23  1  0  0  0  0
 18 24  1  0  0  0  0
 19 20  1  0  0  0  0
 19 21  1  0  0  0  0
 19 22  2  0  0  0  0
 21 25  2  0  0  0  0
 21 27  1  0  0  0  0
 22 26  1  0  0  0  0
 23 38  1  0  0  0  0
 23 39  1  0  0  0  0
 23 40  1  0  0  0  0
 24 41  1  0  0  0  0
 24 42  1  0  0  0  0
 24 43  1  0  0  0  0
 25 28  1  0  0  0  0
 25 44  1  0  0  0  0
 26 28  2  0  0  0  0
 26 46  1  0  0  0  0
 27 47  1  0  0  0  0
 27 48  1  0  0  0  0
 27 49  1  0  0  0  0
M  END
> <PUBCHEM_COMPOUND_CID>
100450

> <PUBCHEM_COMPOUND_CANONICALIZED>
1

> <PUBCHEM_CACTVS_COMPLEXITY>
545

> <PUBCHEM_CACTVS_HBOND_ACCEPTOR>
7

> <PUBCHEM_CACTVS_HBOND_DONOR>
5

> <PUBCHEM_CACTVS_ROTATABLE_BOND>
7

> <PUBCHEM_CACTVS_SUBSKEYS>
AAADceB4OAAAAAAAAAAAAAAAAAAAAAAAAAAwYAAAAAAAAAABQAAAGgAACAAADASgmAIyDoAABgCIAiDSCAACCAAkIAAAiAEGCMgMNzaGNRqCe2Cl4BUIuQfI7PzO4AADCAAYAADAAAYQADAAAAAAAAAAAA==

> <PUBCHEM_IUPAC_OPENEYE_NAME>
[3-hydroxy-4,5-bis(hydroxymethyl)-2-(3-methylbut-2-enyl)phenyl] 2,4-dihydroxy-6-methyl-benzoate

> <PUBCHEM_IUPAC_CAS_NAME>
2,4-dihydroxy-6-methylbenzoic acid [3-hydroxy-4,5-bis(hydroxymethyl)-2-(3-methylbut-2-enyl)phenyl] ester

> <PUBCHEM_IUPAC_NAME_MARKUP>
[3-hydroxy-4,5-bis(hydroxymethyl)-2-(3-methylbut-2-enyl)phenyl] 2,4-dihydroxy-6-methylbenzoate

> <PUBCHEM_IUPAC_NAME>
[3-hydroxy-4,5-bis(hydroxymethyl)-2-(3-methylbut-2-enyl)phenyl] 2,4-dihydroxy-6-methylbenzoate

> <PUBCHEM_IUPAC_SYSTEMATIC_NAME>
[4,5-bis(hydroxymethyl)-2-(3-methylbut-2-enyl)-3-oxidanyl-phenyl] 2-methyl-4,6-bis(oxidanyl)benzoate

> <PUBCHEM_IUPAC_TRADITIONAL_NAME>
2,4-dihydroxy-6-methyl-benzoic acid [3-hydroxy-2-(3-methylbut-2-enyl)-4,5-dimethylol-phenyl] ester

> <PUBCHEM_IUPAC_INCHI>
InChI=1S/C21H24O7/c1-11(2)4-5-15-18(7-13(9-22)16(10-23)20(15)26)28-21(27)19-12(3)6-14(24)8-17(19)25/h4,6-8,22-26H,5,9-10H2,1-3H3

> <PUBCHEM_IUPAC_INCHIKEY>
WTZUCTQSBSDSRG-UHFFFAOYSA-N

> <PUBCHEM_XLOGP3_AA>
3.9

> <PUBCHEM_EXACT_MASS>
388.15220310

> <PUBCHEM_MOLECULAR_FORMULA>
C21H24O7

> <PUBCHEM_MOLECULAR_WEIGHT>
388.4

> <PUBCHEM_OPENEYE_CAN_SMILES>
CC1=CC(=CC(=C1C(=O)OC2=C(C(=C(C(=C2)CO)CO)O)CC=C(C)C)O)O

> <PUBCHEM_OPENEYE_ISO_SMILES>
CC1=CC(=CC(=C1C(=O)OC2=C(C(=C(C(=C2)CO)CO)O)CC=C(C)C)O)O

> <PUBCHEM_CACTVS_TPSA>
127

> <PUBCHEM_MONOISOTOPIC_WEIGHT>
388.15220310

> <PUBCHEM_TOTAL_CHARGE>
0

> <PUBCHEM_HEAVY_ATOM_COUNT>
28

> <PUBCHEM_ATOM_DEF_STEREO_COUNT>
0

> <PUBCHEM_ATOM_UDEF_STEREO_COUNT>
0

> <PUBCHEM_BOND_DEF_STEREO_COUNT>
0

> <PUBCHEM_BOND_UDEF_STEREO_COUNT>
0

> <PUBCHEM_ISOTOPIC_ATOM_COUNT>
0

> <PUBCHEM_COMPONENT_COUNT>
1

> <PUBCHEM_CACTVS_TAUTO_COUNT>
75

> <PUBCHEM_COORDINATE_TYPE>
1
5
255

> <PUBCHEM_BONDANNOTATIONS>
10  14  8
12  14  8
19  21  8
19  22  8
21  25  8
22  26  8
25  28  8
26  28  8
8  11  8
8  12  8
9  10  8
9  11  8

$$$$
