71717680
  -OEChem-05162309492D

 70 73  0     1  0  0  0  0  0999 V2000
    7.7331    2.0950    0.0000 O   0  0  0  0  0  0  0  0  0  0  0  0
    4.2690    1.0950    0.0000 O   0  0  0  0  0  0  0  0  0  0  0  0
    6.0010    1.0950    0.0000 O   0  0  0  0  0  0  0  0  0  0  0  0
    6.0010    4.0950    0.0000 O   0  0  0  0  0  0  0  0  0  0  0  0
    7.7331    5.0950    0.0000 O   0  0  0  0  0  0  0  0  0  0  0  0
    9.4651    2.0950    0.0000 O   0  0  0  0  0  0  0  0  0  0  0  0
    6.0010   -0.9050    0.0000 O   0  0  0  0  0  0  0  0  0  0  0  0
    9.4651    4.0950    0.0000 O   0  0  0  0  0  0  0  0  0  0  0  0
    4.2690   -1.9050    0.0000 O   0  0  0  0  0  0  0  0  0  0  0  0
    2.5369   -0.9050    0.0000 O   0  0  0  0  0  0  0  0  0  0  0  0
   10.3312   -2.4050    0.0000 O   0  0  0  0  0  0  0  0  0  0  0  0
    9.4651   -3.9050    0.0000 O   0  0  0  0  0  0  0  0  0  0  0  0
    6.8671    2.5950    0.0000 C   0  0  1  0  0  0  0  0  0  0  0  0
    6.8671    3.5950    0.0000 C   0  0  2  0  0  0  0  0  0  0  0  0
    7.7331    4.0950    0.0000 C   0  0  1  0  0  0  0  0  0  0  0  0
    5.1350   -0.4050    0.0000 C   0  0  1  0  0  0  0  0  0  0  0  0
    8.5991    3.5950    0.0000 C   0  0  2  0  0  0  0  0  0  0  0  0
    5.1350    0.5950    0.0000 C   0  0  1  0  0  0  0  0  0  0  0  0
    4.2690   -0.9050    0.0000 C   0  0  1  0  0  0  0  0  0  0  0  0
    3.4030   -0.4050    0.0000 C   0  0  2  0  0  0  0  0  0  0  0  0
    3.4030    0.5950    0.0000 C   0  0  2  0  0  0  0  0  0  0  0  0
    6.0010    2.0950    0.0000 C   0  0  0  0  0  0  0  0  0  0  0  0
    8.5991    2.5950    0.0000 C   0  0  1  0  0  0  0  0  0  0  0  0
    2.5369    1.0950    0.0000 C   0  0  0  0  0  0  0  0  0  0  0  0
    9.4651    1.0950    0.0000 C   0  0  0  0  0  0  0  0  0  0  0  0
    8.5991    0.5950    0.0000 C   0  0  0  0  0  0  0  0  0  0  0  0
   10.3312    0.5950    0.0000 C   0  0  0  0  0  0  0  0  0  0  0  0
    8.5991   -0.4050    0.0000 C   0  0  0  0  0  0  0  0  0  0  0  0
   10.3312   -0.4050    0.0000 C   0  0  0  0  0  0  0  0  0  0  0  0
    9.4651   -0.9050    0.0000 C   0  0  0  0  0  0  0  0  0  0  0  0
    9.4651   -1.9050    0.0000 C   0  0  0  0  0  0  0  0  0  0  0  0
   10.3312   -3.4050    0.0000 C   0  0  0  0  0  0  0  0  0  0  0  0
   11.1972   -3.9050    0.0000 C   0  0  0  0  0  0  0  0  0  0  0  0
   12.0632   -3.4050    0.0000 C   0  0  0  0  0  0  0  0  0  0  0  0
   11.1972   -4.9050    0.0000 C   0  0  0  0  0  0  0  0  0  0  0  0
   12.9292   -3.9050    0.0000 C   0  0  0  0  0  0  0  0  0  0  0  0
   12.0632   -5.4050    0.0000 C   0  0  0  0  0  0  0  0  0  0  0  0
   12.9292   -4.9050    0.0000 C   0  0  0  0  0  0  0  0  0  0  0  0
    6.8671    1.9750    0.0000 H   0  0  0  0  0  0  0  0  0  0  0  0
    6.8671    4.2150    0.0000 H   0  0  0  0  0  0  0  0  0  0  0  0
    8.2700    4.4050    0.0000 H   0  0  0  0  0  0  0  0  0  0  0  0
    5.1350   -1.0250    0.0000 H   0  0  0  0  0  0  0  0  0  0  0  0
    8.5991    4.2150    0.0000 H   0  0  0  0  0  0  0  0  0  0  0  0
    5.1350    1.2150    0.0000 H   0  0  0  0  0  0  0  0  0  0  0  0
    3.7320   -1.2150    0.0000 H   0  0  0  0  0  0  0  0  0  0  0  0
    3.4030   -1.0250    0.0000 H   0  0  0  0  0  0  0  0  0  0  0  0
    3.4030    1.2150    0.0000 H   0  0  0  0  0  0  0  0  0  0  0  0
    5.7890    2.6776    0.0000 H   0  0  0  0  0  0  0  0  0  0  0  0
    5.3905    1.9873    0.0000 H   0  0  0  0  0  0  0  0  0  0  0  0
    8.5991    1.9750    0.0000 H   0  0  0  0  0  0  0  0  0  0  0  0
    2.8469    1.6319    0.0000 H   0  0  0  0  0  0  0  0  0  0  0  0
    2.0000    1.4050    0.0000 H   0  0  0  0  0  0  0  0  0  0  0  0
    2.2269    0.5581    0.0000 H   0  0  0  0  0  0  0  0  0  0  0  0
    6.0010    4.7150    0.0000 H   0  0  0  0  0  0  0  0  0  0  0  0
    8.2700    5.4050    0.0000 H   0  0  0  0  0  0  0  0  0  0  0  0
    6.5380   -0.5950    0.0000 H   0  0  0  0  0  0  0  0  0  0  0  0
   10.0021    3.7850    0.0000 H   0  0  0  0  0  0  0  0  0  0  0  0
    3.7320   -2.2150    0.0000 H   0  0  0  0  0  0  0  0  0  0  0  0
    2.0000   -0.5950    0.0000 H   0  0  0  0  0  0  0  0  0  0  0  0
    8.0622    0.9050    0.0000 H   0  0  0  0  0  0  0  0  0  0  0  0
   10.8681    0.9050    0.0000 H   0  0  0  0  0  0  0  0  0  0  0  0
    8.0622   -0.7150    0.0000 H   0  0  0  0  0  0  0  0  0  0  0  0
   10.8681   -0.7150    0.0000 H   0  0  0  0  0  0  0  0  0  0  0  0
    8.8546   -1.7973    0.0000 H   0  0  0  0  0  0  0  0  0  0  0  0
    9.2531   -2.4876    0.0000 H   0  0  0  0  0  0  0  0  0  0  0  0
   12.0632   -2.7850    0.0000 H   0  0  0  0  0  0  0  0  0  0  0  0
   10.6603   -5.2150    0.0000 H   0  0  0  0  0  0  0  0  0  0  0  0
   13.4662   -3.5950    0.0000 H   0  0  0  0  0  0  0  0  0  0  0  0
   12.0632   -6.0250    0.0000 H   0  0  0  0  0  0  0  0  0  0  0  0
   13.4662   -5.2150    0.0000 H   0  0  0  0  0  0  0  0  0  0  0  0
  1 13  1  0  0  0  0
  1 23  1  0  0  0  0
  2 18  1  0  0  0  0
  2 21  1  0  0  0  0
 18  3  1  1  0  0  0
  3 22  1  0  0  0  0
 14  4  1  1  0  0  0
  4 54  1  0  0  0  0
 15  5  1  6  0  0  0
  5 55  1  0  0  0  0
 23  6  1  6  0  0  0
  6 25  1  0  0  0  0
 16  7  1  6  0  0  0
  7 56  1  0  0  0  0
 17  8  1  1  0  0  0
  8 57  1  0  0  0  0
 19  9  1  6  0  0  0
  9 58  1  0  0  0  0
 20 10  1  1  0  0  0
 10 59  1  0  0  0  0
 11 31  1  0  0  0  0
 11 32  1  0  0  0  0
 12 32  2  0  0  0  0
 13 14  1  0  0  0  0
 13 22  1  6  0  0  0
 13 39  1  0  0  0  0
 14 15  1  0  0  0  0
 14 40  1  0  0  0  0
 15 17  1  0  0  0  0
 15 41  1  0  0  0  0
 16 18  1  0  0  0  0
 16 19  1  0  0  0  0
 16 42  1  0  0  0  0
 17 23  1  0  0  0  0
 17 43  1  0  0  0  0
 18 44  1  0  0  0  0
 19 20  1  0  0  0  0
 19 45  1  0  0  0  0
 20 21  1  0  0  0  0
 20 46  1  0  0  0  0
 21 24  1  6  0  0  0
 21 47  1  0  0  0  0
 22 48  1  0  0  0  0
 22 49  1  0  0  0  0
 23 50  1  0  0  0  0
 24 51  1  0  0  0  0
 24 52  1  0  0  0  0
 24 53  1  0  0  0  0
 25 26  2  0  0  0  0
 25 27  1  0  0  0  0
 26 28  1  0  0  0  0
 26 60  1  0  0  0  0
 27 29  2  0  0  0  0
 27 61  1  0  0  0  0
 28 30  2  0  0  0  0
 28 62  1  0  0  0  0
 29 30  1  0  0  0  0
 29 63  1  0  0  0  0
 30 31  1  0  0  0  0
 31 64  1  0  0  0  0
 31 65  1  0  0  0  0
 32 33  1  0  0  0  0
 33 34  2  0  0  0  0
 33 35  1  0  0  0  0
 34 36  1  0  0  0  0
 34 66  1  0  0  0  0
 35 37  2  0  0  0  0
 35 67  1  0  0  0  0
 36 38  2  0  0  0  0
 36 68  1  0  0  0  0
 37 38  1  0  0  0  0
 37 69  1  0  0  0  0
 38 70  1  0  0  0  0
M  END
> <PUBCHEM_COMPOUND_CID>
71717680

> <PUBCHEM_COMPOUND_CANONICALIZED>
1

> <PUBCHEM_CACTVS_COMPLEXITY>
740

> <PUBCHEM_CACTVS_HBOND_ACCEPTOR>
12

> <PUBCHEM_CACTVS_HBOND_DONOR>
6

> <PUBCHEM_CACTVS_ROTATABLE_BOND>
9

> <PUBCHEM_CACTVS_SUBSKEYS>
AAADcfB4PAAAAAAAAAAAAAAAAAAAAAAAAAA0aIEAAAAAAAABQAAAGgAACAAADBSwmAMyDoAABgCIAiDSCAACCAAkIAAIiAEGCMgdNjKENRqieSClwBEPqYfI6CyOIAAAAAAAAABAAAAAAAAAAAAAAAAAAA==

> <PUBCHEM_IUPAC_OPENEYE_NAME>
[4-[(2S,3R,4S,5S,6R)-3,4,5-trihydroxy-6-[[(2R,3R,4R,5R,6S)-3,4,5-trihydroxy-6-methyl-tetrahydropyran-2-yl]oxymethyl]tetrahydropyran-2-yl]oxyphenyl]methyl benzoate

> <PUBCHEM_IUPAC_CAS_NAME>
benzoic acid [4-[[(2S,3R,4S,5S,6R)-3,4,5-trihydroxy-6-[[(2R,3R,4R,5R,6S)-3,4,5-trihydroxy-6-methyl-2-oxanyl]oxymethyl]-2-oxanyl]oxy]phenyl]methyl ester

> <PUBCHEM_IUPAC_NAME_MARKUP>
[4-[(2<I>S</I>,3<I>R</I>,4<I>S</I>,5<I>S</I>,6<I>R</I>)-3,4,5-trihydroxy-6-[[(2<I>R</I>,3<I>R</I>,4<I>R</I>,5<I>R</I>,6<I>S</I>)-3,4,5-trihydroxy-6-methyloxan-2-yl]oxymethyl]oxan-2-yl]oxyphenyl]methyl benzoate

> <PUBCHEM_IUPAC_NAME>
[4-[(2S,3R,4S,5S,6R)-3,4,5-trihydroxy-6-[[(2R,3R,4R,5R,6S)-3,4,5-trihydroxy-6-methyloxan-2-yl]oxymethyl]oxan-2-yl]oxyphenyl]methyl benzoate

> <PUBCHEM_IUPAC_SYSTEMATIC_NAME>
[4-[(2S,3R,4S,5S,6R)-6-[[(2R,3R,4R,5R,6S)-6-methyl-3,4,5-tris(oxidanyl)oxan-2-yl]oxymethyl]-3,4,5-tris(oxidanyl)oxan-2-yl]oxyphenyl]methyl benzoate

> <PUBCHEM_IUPAC_TRADITIONAL_NAME>
benzoic acid [4-[(2S,3R,4S,5S,6R)-3,4,5-trihydroxy-6-[[(2R,3R,4R,5R,6S)-3,4,5-trihydroxy-6-methyl-tetrahydropyran-2-yl]oxymethyl]tetrahydropyran-2-yl]oxybenzyl] ester

> <PUBCHEM_IUPAC_INCHI>
InChI=1S/C26H32O12/c1-13-18(27)20(29)22(31)25(36-13)35-12-17-19(28)21(30)23(32)26(38-17)37-16-9-7-14(8-10-16)11-34-24(33)15-5-3-2-4-6-15/h2-10,13,17-23,25-32H,11-12H2,1H3/t13-,17+,18-,19+,20+,21-,22+,23+,25+,26+/m0/s1

> <PUBCHEM_IUPAC_INCHIKEY>
ATFPEGWAMNHQHJ-WTVFMWFCSA-N

> <PUBCHEM_XLOGP3_AA>
-0.5

> <PUBCHEM_EXACT_MASS>
536.18937645

> <PUBCHEM_MOLECULAR_FORMULA>
C26H32O12

> <PUBCHEM_MOLECULAR_WEIGHT>
536.5

> <PUBCHEM_OPENEYE_CAN_SMILES>
CC1C(C(C(C(O1)OCC2C(C(C(C(O2)OC3=CC=C(C=C3)COC(=O)C4=CC=CC=C4)O)O)O)O)O)O

> <PUBCHEM_OPENEYE_ISO_SMILES>
C[C@H]1[C@@H]([C@H]([C@H]([C@@H](O1)OC[C@@H]2[C@H]([C@@H]([C@H]([C@@H](O2)OC3=CC=C(C=C3)COC(=O)C4=CC=CC=C4)O)O)O)O)O)O

> <PUBCHEM_CACTVS_TPSA>
185

> <PUBCHEM_MONOISOTOPIC_WEIGHT>
536.18937645

> <PUBCHEM_TOTAL_CHARGE>
0

> <PUBCHEM_HEAVY_ATOM_COUNT>
38

> <PUBCHEM_ATOM_DEF_STEREO_COUNT>
10

> <PUBCHEM_ATOM_UDEF_STEREO_COUNT>
0

> <PUBCHEM_BOND_DEF_STEREO_COUNT>
0

> <PUBCHEM_BOND_UDEF_STEREO_COUNT>
0

> <PUBCHEM_ISOTOPIC_ATOM_COUNT>
0

> <PUBCHEM_COMPONENT_COUNT>
1

> <PUBCHEM_CACTVS_TAUTO_COUNT>
-1

> <PUBCHEM_COORDINATE_TYPE>
1
5
255

> <PUBCHEM_BONDANNOTATIONS>
20  10  5
13  22  6
21  24  6
25  26  8
25  27  8
26  28  8
27  29  8
28  30  8
29  30  8
18  3  5
33  34  8
33  35  8
34  36  8
35  37  8
36  38  8
37  38  8
14  4  5
15  5  6
23  6  6
16  7  6
17  8  5
19  9  6

$$$$
