44583855
  -OEChem-05162309072D

 24 24  0     0  0  0  0  0  0999 V2000
    5.0929    0.0125    0.0000 S   0  0  0  0  0  0  0  0  0  0  0  0
    2.5896    0.9604    0.0000 O   0  0  0  0  0  0  0  0  0  0  0  0
    4.2839    0.6002    0.0000 C   0  0  0  0  0  0  0  0  0  0  0  0
    4.5929    1.5513    0.0000 C   0  0  0  0  0  0  0  0  0  0  0  0
    3.3328    0.2912    0.0000 C   0  0  0  0  0  0  0  0  0  0  0  0
    5.5929    1.5513    0.0000 C   0  0  0  0  0  0  0  0  0  0  0  0
    5.9019    0.6002    0.0000 C   0  0  0  0  0  0  0  0  0  0  0  0
    6.8530    0.2912    0.0000 C   0  0  0  0  0  0  0  0  0  0  0  0
   11.4003   -0.2757    0.0000 C   0  0  0  0  0  0  0  0  0  0  0  0
   12.3514   -0.5847    0.0000 C   0  0  0  0  0  0  0  0  0  0  0  0
    7.8040   -0.0178    0.0000 C   0  0  0  0  0  0  0  0  0  0  0  0
   10.6572   -0.9448    0.0000 C   0  0  0  0  0  0  0  0  0  0  0  0
    8.7551   -0.3268    0.0000 C   0  0  0  0  0  0  0  0  0  0  0  0
    9.7061   -0.6358    0.0000 C   0  0  0  0  0  0  0  0  0  0  0  0
    4.2284    2.0529    0.0000 H   0  0  0  0  0  0  0  0  0  0  0  0
    2.8442   -0.0905    0.0000 H   0  0  0  0  0  0  0  0  0  0  0  0
    3.6239   -0.2562    0.0000 H   0  0  0  0  0  0  0  0  0  0  0  0
    5.9573    2.0529    0.0000 H   0  0  0  0  0  0  0  0  0  0  0  0
    2.0000    0.7688    0.0000 H   0  0  0  0  0  0  0  0  0  0  0  0
   12.1598   -1.1744    0.0000 H   0  0  0  0  0  0  0  0  0  0  0  0
   12.9410   -0.7763    0.0000 H   0  0  0  0  0  0  0  0  0  0  0  0
   12.5430    0.0049    0.0000 H   0  0  0  0  0  0  0  0  0  0  0  0
   11.2714    0.3307    0.0000 H   0  0  0  0  0  0  0  0  0  0  0  0
   10.7861   -1.5513    0.0000 H   0  0  0  0  0  0  0  0  0  0  0  0
  1  3  1  0  0  0  0
  1  7  1  0  0  0  0
  2  5  1  0  0  0  0
  2 19  1  0  0  0  0
  3  4  2  0  0  0  0
  3  5  1  0  0  0  0
  4  6  1  0  0  0  0
  4 15  1  0  0  0  0
  5 16  1  0  0  0  0
  5 17  1  0  0  0  0
  6  7  2  0  0  0  0
  6 18  1  0  0  0  0
  7  8  1  0  0  0  0
  8 11  3  0  0  0  0
  9 10  1  0  0  0  0
  9 12  2  0  0  0  0
  9 23  1  0  0  0  0
 10 20  1  0  0  0  0
 10 21  1  0  0  0  0
 10 22  1  0  0  0  0
 11 13  1  0  0  0  0
 12 14  1  0  0  0  0
 12 24  1  0  0  0  0
 13 14  3  0  0  0  0
M  END
> <PUBCHEM_COMPOUND_CID>
44583855

> <PUBCHEM_COMPOUND_CANONICALIZED>
1

> <PUBCHEM_CACTVS_COMPLEXITY>
330

> <PUBCHEM_CACTVS_HBOND_ACCEPTOR>
2

> <PUBCHEM_CACTVS_HBOND_DONOR>
1

> <PUBCHEM_CACTVS_ROTATABLE_BOND>
3

> <PUBCHEM_CACTVS_SUBSKEYS>
AAADccBwIABAAAAAAAAAAAAAAAAAASAAAAAAAAAAAAAAAAABgAAAGgQACAAACACg0AIyAYAAAgjEECBCAAgDAIAgCBBIiBgACIgINiKgERCAUAAkwAEomAeAQAAAAAAAAAAAAAAAAAAAAAAAAAAAAAAAAA==

> <PUBCHEM_IUPAC_OPENEYE_NAME>
[5-[(E)-hept-5-en-1,3-diynyl]-2-thienyl]methanol

> <PUBCHEM_IUPAC_CAS_NAME>
[5-[(E)-hept-5-en-1,3-diynyl]-2-thiophenyl]methanol

> <PUBCHEM_IUPAC_NAME_MARKUP>
[5-[(<I>E</I>)-hept-5-en-1,3-diynyl]thiophen-2-yl]methanol

> <PUBCHEM_IUPAC_NAME>
[5-[(E)-hept-5-en-1,3-diynyl]thiophen-2-yl]methanol

> <PUBCHEM_IUPAC_SYSTEMATIC_NAME>
[5-[(E)-hept-5-en-1,3-diynyl]thiophen-2-yl]methanol

> <PUBCHEM_IUPAC_TRADITIONAL_NAME>
[5-[(E)-hept-5-en-1,3-diynyl]-2-thienyl]methanol

> <PUBCHEM_IUPAC_INCHI>
InChI=1S/C12H10OS/c1-2-3-4-5-6-7-11-8-9-12(10-13)14-11/h2-3,8-9,13H,10H2,1H3/b3-2+

> <PUBCHEM_IUPAC_INCHIKEY>
XFCGMIGOOIZCKE-NSCUHMNNSA-N

> <PUBCHEM_XLOGP3_AA>
2.6

> <PUBCHEM_EXACT_MASS>
202.04523611

> <PUBCHEM_MOLECULAR_FORMULA>
C12H10OS

> <PUBCHEM_MOLECULAR_WEIGHT>
202.27

> <PUBCHEM_OPENEYE_CAN_SMILES>
CC=CC#CC#CC1=CC=C(S1)CO

> <PUBCHEM_OPENEYE_ISO_SMILES>
C/C=C/C#CC#CC1=CC=C(S1)CO

> <PUBCHEM_CACTVS_TPSA>
48.5

> <PUBCHEM_MONOISOTOPIC_WEIGHT>
202.04523611

> <PUBCHEM_TOTAL_CHARGE>
0

> <PUBCHEM_HEAVY_ATOM_COUNT>
14

> <PUBCHEM_ATOM_DEF_STEREO_COUNT>
0

> <PUBCHEM_ATOM_UDEF_STEREO_COUNT>
0

> <PUBCHEM_BOND_DEF_STEREO_COUNT>
1

> <PUBCHEM_BOND_UDEF_STEREO_COUNT>
0

> <PUBCHEM_ISOTOPIC_ATOM_COUNT>
0

> <PUBCHEM_COMPONENT_COUNT>
1

> <PUBCHEM_CACTVS_TAUTO_COUNT>
-1

> <PUBCHEM_COORDINATE_TYPE>
1
5
255

> <PUBCHEM_BONDANNOTATIONS>
1  3  8
1  7  8
3  4  8
4  6  8
6  7  8

$$$$
