46230265
  -OEChem-05162308232D

 70 71  0     1  0  0  0  0  0999 V2000
    7.6159    2.0390    0.0000 O   0  0  0  0  0  0  0  0  0  0  0  0
    3.5000   -4.3790    0.0000 O   0  0  0  0  0  0  0  0  0  0  0  0
    7.5958    3.7710    0.0000 O   0  0  0  0  0  0  0  0  0  0  0  0
   11.0856    4.6774    0.0000 O   0  0  0  0  0  0  0  0  0  0  0  0
   11.1056    2.9455    0.0000 O   0  0  0  0  0  0  0  0  0  0  0  0
    5.2320   -0.3790    0.0000 C   0  0  1  0  0  0  0  0  0  0  0  0
    5.2320    0.6210    0.0000 C   0  0  2  0  0  0  0  0  0  0  0  0
    6.1260    1.1557    0.0000 C   0  0  1  0  0  0  0  0  0  0  0  0
    4.3660   -0.8790    0.0000 C   0  0  2  0  0  0  0  0  0  0  0  0
    6.1260   -0.9136    0.0000 C   0  0  0  0  0  0  0  0  0  0  0  0
    4.3660    1.1210    0.0000 C   0  0  0  0  0  0  0  0  0  0  0  0
    7.0321    0.6419    0.0000 C   0  0  0  0  0  0  0  0  0  0  0  0
    7.0321   -0.3998    0.0000 C   0  0  0  0  0  0  0  0  0  0  0  0
    5.2320   -1.3790    0.0000 C   0  0  0  0  0  0  0  0  0  0  0  0
    3.5000    0.6210    0.0000 C   0  0  0  0  0  0  0  0  0  0  0  0
    3.5000   -0.3790    0.0000 C   0  0  0  0  0  0  0  0  0  0  0  0
    4.3660   -1.8790    0.0000 C   0  0  0  0  0  0  0  0  0  0  0  0
    6.6160    2.0274    0.0000 C   0  0  0  0  0  0  0  0  0  0  0  0
    5.6160    2.0159    0.0000 C   0  0  0  0  0  0  0  0  0  0  0  0
    3.5000   -2.3790    0.0000 C   0  0  0  0  0  0  0  0  0  0  0  0
    2.6340   -0.8790    0.0000 C   0  0  0  0  0  0  0  0  0  0  0  0
    3.5000   -3.3790    0.0000 C   0  0  2  0  0  0  0  0  0  0  0  0
    4.5000   -3.3790    0.0000 C   0  0  0  0  0  0  0  0  0  0  0  0
    8.1058    2.9108    0.0000 C   0  0  0  0  0  0  0  0  0  0  0  0
    2.5000   -3.3790    0.0000 C   0  0  0  0  0  0  0  0  0  0  0  0
    9.1058    2.9223    0.0000 C   0  0  0  0  0  0  0  0  0  0  0  0
    2.0000   -4.2450    0.0000 C   0  0  0  0  0  0  0  0  0  0  0  0
    9.5957    3.7941    0.0000 C   0  0  0  0  0  0  0  0  0  0  0  0
   10.5956    3.8056    0.0000 C   0  0  0  0  0  0  0  0  0  0  0  0
   12.0855    4.6890    0.0000 C   0  0  0  0  0  0  0  0  0  0  0  0
    5.2255    1.4710    0.0000 H   0  0  0  0  0  0  0  0  0  0  0  0
    3.8291   -1.1890    0.0000 H   0  0  0  0  0  0  0  0  0  0  0  0
    5.7214   -1.3834    0.0000 H   0  0  0  0  0  0  0  0  0  0  0  0
    6.5196   -1.3926    0.0000 H   0  0  0  0  0  0  0  0  0  0  0  0
    4.7646    1.5960    0.0000 H   0  0  0  0  0  0  0  0  0  0  0  0
    3.9675    1.5960    0.0000 H   0  0  0  0  0  0  0  0  0  0  0  0
    7.6429    0.5358    0.0000 H   0  0  0  0  0  0  0  0  0  0  0  0
    7.2411    1.2256    0.0000 H   0  0  0  0  0  0  0  0  0  0  0  0
    7.2411   -0.9835    0.0000 H   0  0  0  0  0  0  0  0  0  0  0  0
    7.6429   -0.2937    0.0000 H   0  0  0  0  0  0  0  0  0  0  0  0
    4.6120   -1.3790    0.0000 H   0  0  0  0  0  0  0  0  0  0  0  0
    5.2320   -1.9990    0.0000 H   0  0  0  0  0  0  0  0  0  0  0  0
    5.8520   -1.3790    0.0000 H   0  0  0  0  0  0  0  0  0  0  0  0
    3.2880    1.2037    0.0000 H   0  0  0  0  0  0  0  0  0  0  0  0
    2.8894    0.5134    0.0000 H   0  0  0  0  0  0  0  0  0  0  0  0
    4.5781   -2.4616    0.0000 H   0  0  0  0  0  0  0  0  0  0  0  0
    4.9766   -1.7713    0.0000 H   0  0  0  0  0  0  0  0  0  0  0  0
    6.7165    2.6392    0.0000 H   0  0  0  0  0  0  0  0  0  0  0  0
    6.0309    2.2328    0.0000 H   0  0  0  0  0  0  0  0  0  0  0  0
    6.1493    2.3321    0.0000 H   0  0  0  0  0  0  0  0  0  0  0  0
    5.2998    2.5492    0.0000 H   0  0  0  0  0  0  0  0  0  0  0  0
    5.0827    1.6997    0.0000 H   0  0  0  0  0  0  0  0  0  0  0  0
    3.2880   -1.7964    0.0000 H   0  0  0  0  0  0  0  0  0  0  0  0
    2.8894   -2.4866    0.0000 H   0  0  0  0  0  0  0  0  0  0  0  0
    2.0970   -0.5690    0.0000 H   0  0  0  0  0  0  0  0  0  0  0  0
    2.6340   -1.4990    0.0000 H   0  0  0  0  0  0  0  0  0  0  0  0
    4.5000   -3.9990    0.0000 H   0  0  0  0  0  0  0  0  0  0  0  0
    5.1200   -3.3790    0.0000 H   0  0  0  0  0  0  0  0  0  0  0  0
    4.5000   -2.7590    0.0000 H   0  0  0  0  0  0  0  0  0  0  0  0
    2.1900   -2.8420    0.0000 H   0  0  0  0  0  0  0  0  0  0  0  0
    2.9631   -4.6890    0.0000 H   0  0  0  0  0  0  0  0  0  0  0  0
    9.0052    2.3106    0.0000 H   0  0  0  0  0  0  0  0  0  0  0  0
    9.6908    2.7170    0.0000 H   0  0  0  0  0  0  0  0  0  0  0  0
    1.3800   -4.2450    0.0000 H   0  0  0  0  0  0  0  0  0  0  0  0
    2.3100   -4.7819    0.0000 H   0  0  0  0  0  0  0  0  0  0  0  0
    9.6963    4.4059    0.0000 H   0  0  0  0  0  0  0  0  0  0  0  0
    9.0107    3.9994    0.0000 H   0  0  0  0  0  0  0  0  0  0  0  0
   12.0927    4.0690    0.0000 H   0  0  0  0  0  0  0  0  0  0  0  0
   12.7055    4.6961    0.0000 H   0  0  0  0  0  0  0  0  0  0  0  0
   12.0784    5.3089    0.0000 H   0  0  0  0  0  0  0  0  0  0  0  0
  1 18  1  0  0  0  0
  1 24  1  0  0  0  0
 22  2  1  6  0  0  0
  2 61  1  0  0  0  0
  3 24  2  0  0  0  0
  4 29  1  0  0  0  0
  4 30  1  0  0  0  0
  5 29  2  0  0  0  0
  6  7  1  0  0  0  0
  6  9  1  0  0  0  0
  6 10  1  0  0  0  0
  6 14  1  1  0  0  0
  7  8  1  0  0  0  0
  7 11  1  0  0  0  0
  7 31  1  6  0  0  0
  8 12  1  0  0  0  0
  8 18  1  0  0  0  0
  8 19  1  1  0  0  0
  9 16  1  0  0  0  0
  9 17  1  1  0  0  0
  9 32  1  0  0  0  0
 10 13  1  0  0  0  0
 10 33  1  0  0  0  0
 10 34  1  0  0  0  0
 11 15  1  0  0  0  0
 11 35  1  0  0  0  0
 11 36  1  0  0  0  0
 12 13  1  0  0  0  0
 12 37  1  0  0  0  0
 12 38  1  0  0  0  0
 13 39  1  0  0  0  0
 13 40  1  0  0  0  0
 14 41  1  0  0  0  0
 14 42  1  0  0  0  0
 14 43  1  0  0  0  0
 15 16  1  0  0  0  0
 15 44  1  0  0  0  0
 15 45  1  0  0  0  0
 16 21  2  0  0  0  0
 17 20  1  0  0  0  0
 17 46  1  0  0  0  0
 17 47  1  0  0  0  0
 18 48  1  0  0  0  0
 18 49  1  0  0  0  0
 19 50  1  0  0  0  0
 19 51  1  0  0  0  0
 19 52  1  0  0  0  0
 20 22  1  0  0  0  0
 20 53  1  0  0  0  0
 20 54  1  0  0  0  0
 21 55  1  0  0  0  0
 21 56  1  0  0  0  0
 22 23  1  0  0  0  0
 22 25  1  0  0  0  0
 23 57  1  0  0  0  0
 23 58  1  0  0  0  0
 23 59  1  0  0  0  0
 24 26  1  0  0  0  0
 25 27  2  0  0  0  0
 25 60  1  0  0  0  0
 26 28  1  0  0  0  0
 26 62  1  0  0  0  0
 26 63  1  0  0  0  0
 27 64  1  0  0  0  0
 27 65  1  0  0  0  0
 28 29  1  0  0  0  0
 28 66  1  0  0  0  0
 28 67  1  0  0  0  0
 30 68  1  0  0  0  0
 30 69  1  0  0  0  0
 30 70  1  0  0  0  0
M  END
> <PUBCHEM_COMPOUND_CID>
46230265

> <PUBCHEM_COMPOUND_CANONICALIZED>
1

> <PUBCHEM_CACTVS_COMPLEXITY>
671

> <PUBCHEM_CACTVS_HBOND_ACCEPTOR>
5

> <PUBCHEM_CACTVS_HBOND_DONOR>
1

> <PUBCHEM_CACTVS_ROTATABLE_BOND>
11

> <PUBCHEM_CACTVS_SUBSKEYS>
AAADcfB4OAAAAAAAAAAAAAAAAAAAAAAAAAAwYAAAAAAAAADAAAAAGgAACAAAD0SggAICCAAABgCIAiDSCAAAAAAgAAAIAAEAAAgABBIAAQACQAAEgAAAEAHDwPAPgAAAAAAAAAAAAAQAACAAAAAAAAAAAA==

> <PUBCHEM_IUPAC_OPENEYE_NAME>
O4-[[(1R,4aR,5S,8aR)-5-[(3S)-3-hydroxy-3-methyl-pent-4-enyl]-1,4a-dimethyl-6-methylene-decalin-1-yl]methyl] O1-methyl butanedioate

> <PUBCHEM_IUPAC_CAS_NAME>
butanedioic acid O4-[[(1R,4aR,5S,8aR)-5-[(3S)-3-hydroxy-3-methylpent-4-enyl]-1,4a-dimethyl-6-methylene-3,4,5,7,8,8a-hexahydro-2H-naphthalen-1-yl]methyl] ester O1-methyl ester

> <PUBCHEM_IUPAC_NAME_MARKUP>
4-<I>O</I>-[[(1<I>R</I>,4<I>a</I><I>R</I>,5<I>S</I>,8<I>a</I><I>R</I>)-5-[(3<I>S</I>)-3-hydroxy-3-methylpent-4-enyl]-1,4<I>a</I>-dimethyl-6-methylidene-3,4,5,7,8,8<I>a</I>-hexahydro-2<I>H</I>-naphthalen-1-yl]methyl] 1-<I>O</I>-methyl butanedioate

> <PUBCHEM_IUPAC_NAME>
4-O-[[(1R,4aR,5S,8aR)-5-[(3S)-3-hydroxy-3-methylpent-4-enyl]-1,4a-dimethyl-6-methylidene-3,4,5,7,8,8a-hexahydro-2H-naphthalen-1-yl]methyl] 1-O-methyl butanedioate

> <PUBCHEM_IUPAC_SYSTEMATIC_NAME>
O4-[[(1R,4aR,5S,8aR)-1,4a-dimethyl-6-methylidene-5-[(3S)-3-methyl-3-oxidanyl-pent-4-enyl]-3,4,5,7,8,8a-hexahydro-2H-naphthalen-1-yl]methyl] O1-methyl butanedioate

> <PUBCHEM_IUPAC_TRADITIONAL_NAME>
succinic acid O4-[[(1R,4aR,5S,8aR)-5-[(3S)-3-hydroxy-3-methyl-pent-4-enyl]-1,4a-dimethyl-6-methylene-decalin-1-yl]methyl] ester O1-methyl ester

> <PUBCHEM_IUPAC_INCHI>
InChI=1S/C25H40O5/c1-7-24(4,28)16-13-19-18(2)9-10-20-23(3,14-8-15-25(19,20)5)17-30-22(27)12-11-21(26)29-6/h7,19-20,28H,1-2,8-17H2,3-6H3/t19-,20-,23-,24+,25+/m0/s1

> <PUBCHEM_IUPAC_INCHIKEY>
YBZFNTOZFZILEJ-KJNIBPJZSA-N

> <PUBCHEM_XLOGP3_AA>
4.6

> <PUBCHEM_EXACT_MASS>
420.28757437

> <PUBCHEM_MOLECULAR_FORMULA>
C25H40O5

> <PUBCHEM_MOLECULAR_WEIGHT>
420.6

> <PUBCHEM_OPENEYE_CAN_SMILES>
CC1(CCCC2(C1CCC(=C)C2CCC(C)(C=C)O)C)COC(=O)CCC(=O)OC

> <PUBCHEM_OPENEYE_ISO_SMILES>
C[C@]1(CCC[C@]2([C@H]1CCC(=C)[C@@H]2CC[C@@](C)(C=C)O)C)COC(=O)CCC(=O)OC

> <PUBCHEM_CACTVS_TPSA>
72.8

> <PUBCHEM_MONOISOTOPIC_WEIGHT>
420.28757437

> <PUBCHEM_TOTAL_CHARGE>
0

> <PUBCHEM_HEAVY_ATOM_COUNT>
30

> <PUBCHEM_ATOM_DEF_STEREO_COUNT>
5

> <PUBCHEM_ATOM_UDEF_STEREO_COUNT>
0

> <PUBCHEM_BOND_DEF_STEREO_COUNT>
0

> <PUBCHEM_BOND_UDEF_STEREO_COUNT>
0

> <PUBCHEM_ISOTOPIC_ATOM_COUNT>
0

> <PUBCHEM_COMPONENT_COUNT>
1

> <PUBCHEM_CACTVS_TAUTO_COUNT>
-1

> <PUBCHEM_COORDINATE_TYPE>
1
5
255

> <PUBCHEM_BONDANNOTATIONS>
22  2  6
6  14  5
7  31  6
8  19  5
9  17  5

$$$$
