46230075
  -OEChem-05162309062D

 66 68  0     1  0  0  0  0  0999 V2000
    6.4697   -1.4066    0.0000 O   0  0  0  0  0  0  0  0  0  0  0  0
   11.4516   -0.4886    0.0000 O   0  0  0  0  0  0  0  0  0  0  0  0
    6.4897   -3.1385    0.0000 O   0  0  0  0  0  0  0  0  0  0  0  0
    2.9999   -4.0449    0.0000 O   0  0  0  0  0  0  0  0  0  0  0  0
    2.9799   -2.3130    0.0000 O   0  0  0  0  0  0  0  0  0  0  0  0
    8.8535    0.0114    0.0000 C   0  0  2  0  0  0  0  0  0  0  0  0
    8.8535    1.0114    0.0000 C   0  0  2  0  0  0  0  0  0  0  0  0
    7.9595   -0.5233    0.0000 C   0  0  1  0  0  0  0  0  0  0  0  0
    7.9595    1.5461    0.0000 C   0  0  0  0  0  0  0  0  0  0  0  0
    7.0535   -0.0094    0.0000 C   0  0  0  0  0  0  0  0  0  0  0  0
    9.7195   -0.4886    0.0000 C   0  0  0  0  0  0  0  0  0  0  0  0
    7.0535    1.0322    0.0000 C   0  0  0  0  0  0  0  0  0  0  0  0
    9.7195    1.5114    0.0000 C   0  0  0  0  0  0  0  0  0  0  0  0
   10.5855    0.0114    0.0000 C   0  0  2  0  0  0  0  0  0  0  0  0
    8.8535    2.0114    0.0000 C   0  0  0  0  0  0  0  0  0  0  0  0
    7.4696   -1.3950    0.0000 C   0  0  0  0  0  0  0  0  0  0  0  0
    8.4695   -1.3834    0.0000 C   0  0  0  0  0  0  0  0  0  0  0  0
   10.5855    1.0114    0.0000 C   0  0  0  0  0  0  0  0  0  0  0  0
    9.7034    2.5529    0.0000 C   0  0  0  0  0  0  0  0  0  0  0  0
   11.4955    1.5183    0.0000 C   0  0  0  0  0  0  0  0  0  0  0  0
   11.5036    2.5598    0.0000 C   0  0  0  0  0  0  0  0  0  0  0  0
   10.6015    3.0807    0.0000 C   0  0  0  0  0  0  0  0  0  0  0  0
   12.3715    3.0565    0.0000 C   0  0  0  0  0  0  0  0  0  0  0  0
    5.9797   -2.2783    0.0000 C   0  0  0  0  0  0  0  0  0  0  0  0
   12.3754    4.0565    0.0000 C   0  0  0  0  0  0  0  0  0  0  0  0
   13.2356    2.5532    0.0000 C   0  0  0  0  0  0  0  0  0  0  0  0
    4.9798   -2.2899    0.0000 C   0  0  0  0  0  0  0  0  0  0  0  0
    4.4898   -3.1616    0.0000 C   0  0  0  0  0  0  0  0  0  0  0  0
    3.4899   -3.1732    0.0000 C   0  0  0  0  0  0  0  0  0  0  0  0
    2.0000   -4.0565    0.0000 C   0  0  0  0  0  0  0  0  0  0  0  0
    8.8600   -0.8386    0.0000 H   0  0  0  0  0  0  0  0  0  0  0  0
    8.3641    2.0159    0.0000 H   0  0  0  0  0  0  0  0  0  0  0  0
    7.5659    2.0251    0.0000 H   0  0  0  0  0  0  0  0  0  0  0  0
    6.4426    0.0967    0.0000 H   0  0  0  0  0  0  0  0  0  0  0  0
    6.8444   -0.5931    0.0000 H   0  0  0  0  0  0  0  0  0  0  0  0
    9.3210   -0.9635    0.0000 H   0  0  0  0  0  0  0  0  0  0  0  0
   10.1180   -0.9635    0.0000 H   0  0  0  0  0  0  0  0  0  0  0  0
    6.8444    1.6159    0.0000 H   0  0  0  0  0  0  0  0  0  0  0  0
    6.4426    0.9261    0.0000 H   0  0  0  0  0  0  0  0  0  0  0  0
   10.5855   -0.6086    0.0000 H   0  0  0  0  0  0  0  0  0  0  0  0
    9.4735    2.0114    0.0000 H   0  0  0  0  0  0  0  0  0  0  0  0
    8.8535    2.6314    0.0000 H   0  0  0  0  0  0  0  0  0  0  0  0
    8.2335    2.0114    0.0000 H   0  0  0  0  0  0  0  0  0  0  0  0
    7.3690   -2.0068    0.0000 H   0  0  0  0  0  0  0  0  0  0  0  0
    8.0546   -1.6003    0.0000 H   0  0  0  0  0  0  0  0  0  0  0  0
    7.9362   -1.6996    0.0000 H   0  0  0  0  0  0  0  0  0  0  0  0
    8.7857   -1.9168    0.0000 H   0  0  0  0  0  0  0  0  0  0  0  0
    9.0028   -1.0672    0.0000 H   0  0  0  0  0  0  0  0  0  0  0  0
    9.1630    2.8567    0.0000 H   0  0  0  0  0  0  0  0  0  0  0  0
   12.0289    1.2021    0.0000 H   0  0  0  0  0  0  0  0  0  0  0  0
   11.4516   -1.1086    0.0000 H   0  0  0  0  0  0  0  0  0  0  0  0
   10.5991    3.7007    0.0000 H   0  0  0  0  0  0  0  0  0  0  0  0
   12.3691    2.4365    0.0000 H   0  0  0  0  0  0  0  0  0  0  0  0
   12.9954    4.0541    0.0000 H   0  0  0  0  0  0  0  0  0  0  0  0
   12.3778    4.6765    0.0000 H   0  0  0  0  0  0  0  0  0  0  0  0
   11.7554    4.0589    0.0000 H   0  0  0  0  0  0  0  0  0  0  0  0
   12.9235    2.0174    0.0000 H   0  0  0  0  0  0  0  0  0  0  0  0
   13.7713    2.2411    0.0000 H   0  0  0  0  0  0  0  0  0  0  0  0
   13.5477    3.0889    0.0000 H   0  0  0  0  0  0  0  0  0  0  0  0
    5.0804   -1.6781    0.0000 H   0  0  0  0  0  0  0  0  0  0  0  0
    4.3948   -2.0846    0.0000 H   0  0  0  0  0  0  0  0  0  0  0  0
    4.3892   -3.7734    0.0000 H   0  0  0  0  0  0  0  0  0  0  0  0
    5.0748   -3.3669    0.0000 H   0  0  0  0  0  0  0  0  0  0  0  0
    1.9928   -3.4366    0.0000 H   0  0  0  0  0  0  0  0  0  0  0  0
    1.3800   -4.0637    0.0000 H   0  0  0  0  0  0  0  0  0  0  0  0
    2.0072   -4.6765    0.0000 H   0  0  0  0  0  0  0  0  0  0  0  0
  1 16  1  0  0  0  0
  1 24  1  0  0  0  0
 14  2  1  6  0  0  0
  2 51  1  0  0  0  0
  3 24  2  0  0  0  0
  4 29  1  0  0  0  0
  4 30  1  0  0  0  0
  5 29  2  0  0  0  0
  6  7  1  0  0  0  0
  6  8  1  0  0  0  0
  6 11  1  0  0  0  0
  6 31  1  6  0  0  0
  7  9  1  0  0  0  0
  7 13  1  0  0  0  0
  7 15  1  1  0  0  0
  8 10  1  0  0  0  0
  8 16  1  0  0  0  0
  8 17  1  1  0  0  0
  9 12  1  0  0  0  0
  9 32  1  0  0  0  0
  9 33  1  0  0  0  0
 10 12  1  0  0  0  0
 10 34  1  0  0  0  0
 10 35  1  0  0  0  0
 11 14  1  0  0  0  0
 11 36  1  0  0  0  0
 11 37  1  0  0  0  0
 12 38  1  0  0  0  0
 12 39  1  0  0  0  0
 13 18  2  0  0  0  0
 13 19  1  0  0  0  0
 14 18  1  0  0  0  0
 14 40  1  0  0  0  0
 15 41  1  0  0  0  0
 15 42  1  0  0  0  0
 15 43  1  0  0  0  0
 16 44  1  0  0  0  0
 16 45  1  0  0  0  0
 17 46  1  0  0  0  0
 17 47  1  0  0  0  0
 17 48  1  0  0  0  0
 18 20  1  0  0  0  0
 19 22  2  0  0  0  0
 19 49  1  0  0  0  0
 20 21  2  0  0  0  0
 20 50  1  0  0  0  0
 21 22  1  0  0  0  0
 21 23  1  0  0  0  0
 22 52  1  0  0  0  0
 23 25  1  0  0  0  0
 23 26  1  0  0  0  0
 23 53  1  0  0  0  0
 24 27  1  0  0  0  0
 25 54  1  0  0  0  0
 25 55  1  0  0  0  0
 25 56  1  0  0  0  0
 26 57  1  0  0  0  0
 26 58  1  0  0  0  0
 26 59  1  0  0  0  0
 27 28  1  0  0  0  0
 27 60  1  0  0  0  0
 27 61  1  0  0  0  0
 28 29  1  0  0  0  0
 28 62  1  0  0  0  0
 28 63  1  0  0  0  0
 30 64  1  0  0  0  0
 30 65  1  0  0  0  0
 30 66  1  0  0  0  0
M  END
> <PUBCHEM_COMPOUND_CID>
46230075

> <PUBCHEM_COMPOUND_CANONICALIZED>
1

> <PUBCHEM_CACTVS_COMPLEXITY>
631

> <PUBCHEM_CACTVS_HBOND_ACCEPTOR>
5

> <PUBCHEM_CACTVS_HBOND_DONOR>
1

> <PUBCHEM_CACTVS_ROTATABLE_BOND>
8

> <PUBCHEM_CACTVS_SUBSKEYS>
AAADcfB4OAAAAAAAAAAAAAAAAAAAAAAAAAAwYMAAAAAAAADBAAAAGgAACAAADxSgmAIyCIAABgCIAiDSCAACAAAgAAAIiAEACIgINjKAERCCcAAkwAEImAfD4PwPwAACAAAQAADAAAYAADAAAAAAAAAAAA==

> <PUBCHEM_IUPAC_OPENEYE_NAME>
O4-[[(1R,4aS,9R,10aR)-9-hydroxy-7-isopropyl-1,4a-dimethyl-2,3,4,9,10,10a-hexahydrophenanthren-1-yl]methyl] O1-methyl butanedioate

> <PUBCHEM_IUPAC_CAS_NAME>
butanedioic acid O4-[[(1R,4aS,9R,10aR)-9-hydroxy-1,4a-dimethyl-7-propan-2-yl-2,3,4,9,10,10a-hexahydrophenanthren-1-yl]methyl] ester O1-methyl ester

> <PUBCHEM_IUPAC_NAME_MARKUP>
4-<I>O</I>-[[(1<I>R</I>,4<I>a</I><I>S</I>,9<I>R</I>,10<I>a</I><I>R</I>)-9-hydroxy-1,4<I>a</I>-dimethyl-7-propan-2-yl-2,3,4,9,10,10<I>a</I>-hexahydrophenanthren-1-yl]methyl] 1-<I>O</I>-methyl butanedioate

> <PUBCHEM_IUPAC_NAME>
4-O-[[(1R,4aS,9R,10aR)-9-hydroxy-1,4a-dimethyl-7-propan-2-yl-2,3,4,9,10,10a-hexahydrophenanthren-1-yl]methyl] 1-O-methyl butanedioate

> <PUBCHEM_IUPAC_SYSTEMATIC_NAME>
O4-[[(1R,4aS,9R,10aR)-1,4a-dimethyl-9-oxidanyl-7-propan-2-yl-2,3,4,9,10,10a-hexahydrophenanthren-1-yl]methyl] O1-methyl butanedioate

> <PUBCHEM_IUPAC_TRADITIONAL_NAME>
succinic acid O4-[[(1R,4aS,9R,10aR)-9-hydroxy-7-isopropyl-1,4a-dimethyl-2,3,4,9,10,10a-hexahydrophenanthren-1-yl]methyl] ester O1-methyl ester

> <PUBCHEM_IUPAC_INCHI>
InChI=1S/C25H36O5/c1-16(2)17-7-8-19-18(13-17)20(26)14-21-24(3,11-6-12-25(19,21)4)15-30-23(28)10-9-22(27)29-5/h7-8,13,16,20-21,26H,6,9-12,14-15H2,1-5H3/t20-,21+,24+,25-/m1/s1

> <PUBCHEM_IUPAC_INCHIKEY>
RRYDIFIOFMVLMV-HWIPXOPOSA-N

> <PUBCHEM_XLOGP3_AA>
4.7

> <PUBCHEM_EXACT_MASS>
416.25627424

> <PUBCHEM_MOLECULAR_FORMULA>
C25H36O5

> <PUBCHEM_MOLECULAR_WEIGHT>
416.5

> <PUBCHEM_OPENEYE_CAN_SMILES>
CC(C)C1=CC2=C(C=C1)C3(CCCC(C3CC2O)(C)COC(=O)CCC(=O)OC)C

> <PUBCHEM_OPENEYE_ISO_SMILES>
CC(C)C1=CC2=C(C=C1)[C@]3(CCC[C@@]([C@@H]3C[C@H]2O)(C)COC(=O)CCC(=O)OC)C

> <PUBCHEM_CACTVS_TPSA>
72.8

> <PUBCHEM_MONOISOTOPIC_WEIGHT>
416.25627424

> <PUBCHEM_TOTAL_CHARGE>
0

> <PUBCHEM_HEAVY_ATOM_COUNT>
30

> <PUBCHEM_ATOM_DEF_STEREO_COUNT>
4

> <PUBCHEM_ATOM_UDEF_STEREO_COUNT>
0

> <PUBCHEM_BOND_DEF_STEREO_COUNT>
0

> <PUBCHEM_BOND_UDEF_STEREO_COUNT>
0

> <PUBCHEM_ISOTOPIC_ATOM_COUNT>
0

> <PUBCHEM_COMPONENT_COUNT>
1

> <PUBCHEM_CACTVS_TAUTO_COUNT>
-1

> <PUBCHEM_COORDINATE_TYPE>
1
5
255

> <PUBCHEM_BONDANNOTATIONS>
13  18  8
13  19  8
18  20  8
19  22  8
14  2  6
20  21  8
21  22  8
6  31  6
7  15  5
8  17  5

$$$$
