46230076
  -OEChem-05162307292D

 63 65  0     1  0  0  0  0  0999 V2000
    6.0897   -1.4671    0.0000 O   0  0  0  0  0  0  0  0  0  0  0  0
   12.8595    3.4926    0.0000 O   0  0  0  0  0  0  0  0  0  0  0  0
    6.1097   -3.1990    0.0000 O   0  0  0  0  0  0  0  0  0  0  0  0
    2.6200   -4.1055    0.0000 O   0  0  0  0  0  0  0  0  0  0  0  0
    2.5999   -2.3735    0.0000 O   0  0  0  0  0  0  0  0  0  0  0  0
    8.4735   -0.0491    0.0000 C   0  0  2  0  0  0  0  0  0  0  0  0
    8.4735    0.9509    0.0000 C   0  0  2  0  0  0  0  0  0  0  0  0
    7.5796   -0.5838    0.0000 C   0  0  1  0  0  0  0  0  0  0  0  0
    7.5796    1.4855    0.0000 C   0  0  0  0  0  0  0  0  0  0  0  0
    6.6735   -0.0699    0.0000 C   0  0  0  0  0  0  0  0  0  0  0  0
    9.3395   -0.5491    0.0000 C   0  0  0  0  0  0  0  0  0  0  0  0
    6.6735    0.9717    0.0000 C   0  0  0  0  0  0  0  0  0  0  0  0
    9.3395    1.4509    0.0000 C   0  0  0  0  0  0  0  0  0  0  0  0
   10.2056   -0.0491    0.0000 C   0  0  0  0  0  0  0  0  0  0  0  0
    8.4735    1.9509    0.0000 C   0  0  0  0  0  0  0  0  0  0  0  0
    7.0896   -1.4555    0.0000 C   0  0  0  0  0  0  0  0  0  0  0  0
    8.0895   -1.4440    0.0000 C   0  0  0  0  0  0  0  0  0  0  0  0
   10.2056    0.9509    0.0000 C   0  0  0  0  0  0  0  0  0  0  0  0
    9.3235    2.4924    0.0000 C   0  0  0  0  0  0  0  0  0  0  0  0
   11.1156    1.4577    0.0000 C   0  0  0  0  0  0  0  0  0  0  0  0
   11.1236    2.4993    0.0000 C   0  0  0  0  0  0  0  0  0  0  0  0
   10.2215    3.0201    0.0000 C   0  0  0  0  0  0  0  0  0  0  0  0
   11.9915    2.9960    0.0000 C   0  0  0  0  0  0  0  0  0  0  0  0
    5.5997   -2.3388    0.0000 C   0  0  0  0  0  0  0  0  0  0  0  0
   11.4949    3.8639    0.0000 C   0  0  0  0  0  0  0  0  0  0  0  0
   12.4882    2.1280    0.0000 C   0  0  0  0  0  0  0  0  0  0  0  0
    4.5998   -2.3504    0.0000 C   0  0  0  0  0  0  0  0  0  0  0  0
    4.1098   -3.2222    0.0000 C   0  0  0  0  0  0  0  0  0  0  0  0
    3.1099   -3.2337    0.0000 C   0  0  0  0  0  0  0  0  0  0  0  0
    8.4801   -0.8991    0.0000 H   0  0  0  0  0  0  0  0  0  0  0  0
    7.9842    1.9553    0.0000 H   0  0  0  0  0  0  0  0  0  0  0  0
    7.1859    1.9646    0.0000 H   0  0  0  0  0  0  0  0  0  0  0  0
    6.0626    0.0362    0.0000 H   0  0  0  0  0  0  0  0  0  0  0  0
    6.4644   -0.6536    0.0000 H   0  0  0  0  0  0  0  0  0  0  0  0
    8.9410   -1.0241    0.0000 H   0  0  0  0  0  0  0  0  0  0  0  0
    9.7381   -1.0241    0.0000 H   0  0  0  0  0  0  0  0  0  0  0  0
    6.4644    1.5554    0.0000 H   0  0  0  0  0  0  0  0  0  0  0  0
    6.0626    0.8656    0.0000 H   0  0  0  0  0  0  0  0  0  0  0  0
   10.4176   -0.6317    0.0000 H   0  0  0  0  0  0  0  0  0  0  0  0
   10.8161    0.0585    0.0000 H   0  0  0  0  0  0  0  0  0  0  0  0
    9.0935    1.9509    0.0000 H   0  0  0  0  0  0  0  0  0  0  0  0
    8.4735    2.5709    0.0000 H   0  0  0  0  0  0  0  0  0  0  0  0
    7.8535    1.9509    0.0000 H   0  0  0  0  0  0  0  0  0  0  0  0
    6.9890   -2.0673    0.0000 H   0  0  0  0  0  0  0  0  0  0  0  0
    7.6746   -1.6608    0.0000 H   0  0  0  0  0  0  0  0  0  0  0  0
    7.5562   -1.7602    0.0000 H   0  0  0  0  0  0  0  0  0  0  0  0
    8.4057   -1.9773    0.0000 H   0  0  0  0  0  0  0  0  0  0  0  0
    8.6229   -1.1278    0.0000 H   0  0  0  0  0  0  0  0  0  0  0  0
    8.7830    2.7962    0.0000 H   0  0  0  0  0  0  0  0  0  0  0  0
   11.6489    1.1415    0.0000 H   0  0  0  0  0  0  0  0  0  0  0  0
   10.2191    3.6401    0.0000 H   0  0  0  0  0  0  0  0  0  0  0  0
   12.0330    4.1719    0.0000 H   0  0  0  0  0  0  0  0  0  0  0  0
   11.1870    4.4021    0.0000 H   0  0  0  0  0  0  0  0  0  0  0  0
   10.9568    3.5560    0.0000 H   0  0  0  0  0  0  0  0  0  0  0  0
   11.9501    1.8201    0.0000 H   0  0  0  0  0  0  0  0  0  0  0  0
   12.7961    1.5899    0.0000 H   0  0  0  0  0  0  0  0  0  0  0  0
   13.0263    2.4360    0.0000 H   0  0  0  0  0  0  0  0  0  0  0  0
    4.7004   -1.7386    0.0000 H   0  0  0  0  0  0  0  0  0  0  0  0
    4.0148   -2.1451    0.0000 H   0  0  0  0  0  0  0  0  0  0  0  0
   12.8619    4.1126    0.0000 H   0  0  0  0  0  0  0  0  0  0  0  0
    4.0092   -3.8339    0.0000 H   0  0  0  0  0  0  0  0  0  0  0  0
    4.6949   -3.4275    0.0000 H   0  0  0  0  0  0  0  0  0  0  0  0
    2.0000   -4.1126    0.0000 H   0  0  0  0  0  0  0  0  0  0  0  0
  1 16  1  0  0  0  0
  1 24  1  0  0  0  0
  2 23  1  0  0  0  0
  2 60  1  0  0  0  0
  3 24  2  0  0  0  0
  4 29  1  0  0  0  0
  4 63  1  0  0  0  0
  5 29  2  0  0  0  0
  6  7  1  0  0  0  0
  6  8  1  0  0  0  0
  6 11  1  0  0  0  0
  6 30  1  6  0  0  0
  7  9  1  0  0  0  0
  7 13  1  0  0  0  0
  7 15  1  1  0  0  0
  8 10  1  0  0  0  0
  8 16  1  0  0  0  0
  8 17  1  1  0  0  0
  9 12  1  0  0  0  0
  9 31  1  0  0  0  0
  9 32  1  0  0  0  0
 10 12  1  0  0  0  0
 10 33  1  0  0  0  0
 10 34  1  0  0  0  0
 11 14  1  0  0  0  0
 11 35  1  0  0  0  0
 11 36  1  0  0  0  0
 12 37  1  0  0  0  0
 12 38  1  0  0  0  0
 13 18  2  0  0  0  0
 13 19  1  0  0  0  0
 14 18  1  0  0  0  0
 14 39  1  0  0  0  0
 14 40  1  0  0  0  0
 15 41  1  0  0  0  0
 15 42  1  0  0  0  0
 15 43  1  0  0  0  0
 16 44  1  0  0  0  0
 16 45  1  0  0  0  0
 17 46  1  0  0  0  0
 17 47  1  0  0  0  0
 17 48  1  0  0  0  0
 18 20  1  0  0  0  0
 19 22  2  0  0  0  0
 19 49  1  0  0  0  0
 20 21  2  0  0  0  0
 20 50  1  0  0  0  0
 21 22  1  0  0  0  0
 21 23  1  0  0  0  0
 22 51  1  0  0  0  0
 23 25  1  0  0  0  0
 23 26  1  0  0  0  0
 24 27  1  0  0  0  0
 25 52  1  0  0  0  0
 25 53  1  0  0  0  0
 25 54  1  0  0  0  0
 26 55  1  0  0  0  0
 26 56  1  0  0  0  0
 26 57  1  0  0  0  0
 27 28  1  0  0  0  0
 27 58  1  0  0  0  0
 27 59  1  0  0  0  0
 28 29  1  0  0  0  0
 28 61  1  0  0  0  0
 28 62  1  0  0  0  0
M  END
> <PUBCHEM_COMPOUND_CID>
46230076

> <PUBCHEM_COMPOUND_CANONICALIZED>
1

> <PUBCHEM_CACTVS_COMPLEXITY>
629

> <PUBCHEM_CACTVS_HBOND_ACCEPTOR>
5

> <PUBCHEM_CACTVS_HBOND_DONOR>
2

> <PUBCHEM_CACTVS_ROTATABLE_BOND>
7

> <PUBCHEM_CACTVS_SUBSKEYS>
AAADcfB4OAAAAAAAAAAAAAAAAAAAAAAAAAAwYMAAAAAAAADBAAAAGgAACAAAD0SgmAIyCIAABgCIAiDSCAACAAAgAAAIiAEACIgIJjKAERCCcAAkwAEImAfDwPAPwAACAAAQAACAAAQAACAAAAAAAAAAAA==

> <PUBCHEM_IUPAC_OPENEYE_NAME>
4-[[(1R,4aS,10aR)-7-(1-hydroxy-1-methyl-ethyl)-1,4a-dimethyl-2,3,4,9,10,10a-hexahydrophenanthren-1-yl]methoxy]-4-oxo-butanoic acid

> <PUBCHEM_IUPAC_CAS_NAME>
4-[[(1R,4aS,10aR)-7-(2-hydroxypropan-2-yl)-1,4a-dimethyl-2,3,4,9,10,10a-hexahydrophenanthren-1-yl]methoxy]-4-oxobutanoic acid

> <PUBCHEM_IUPAC_NAME_MARKUP>
4-[[(1<I>R</I>,4<I>a</I><I>S</I>,10<I>a</I><I>R</I>)-7-(2-hydroxypropan-2-yl)-1,4<I>a</I>-dimethyl-2,3,4,9,10,10<I>a</I>-hexahydrophenanthren-1-yl]methoxy]-4-oxobutanoic acid

> <PUBCHEM_IUPAC_NAME>
4-[[(1R,4aS,10aR)-7-(2-hydroxypropan-2-yl)-1,4a-dimethyl-2,3,4,9,10,10a-hexahydrophenanthren-1-yl]methoxy]-4-oxobutanoic acid

> <PUBCHEM_IUPAC_SYSTEMATIC_NAME>
4-[[(1R,4aS,10aR)-1,4a-dimethyl-7-(2-oxidanylpropan-2-yl)-2,3,4,9,10,10a-hexahydrophenanthren-1-yl]methoxy]-4-oxidanylidene-butanoic acid

> <PUBCHEM_IUPAC_TRADITIONAL_NAME>
4-[[(1R,4aS,10aR)-7-(1-hydroxy-1-methyl-ethyl)-1,4a-dimethyl-2,3,4,9,10,10a-hexahydrophenanthren-1-yl]methoxy]-4-keto-butyric acid

> <PUBCHEM_IUPAC_INCHI>
InChI=1S/C24H34O5/c1-22(2,28)17-7-8-18-16(14-17)6-9-19-23(3,12-5-13-24(18,19)4)15-29-21(27)11-10-20(25)26/h7-8,14,19,28H,5-6,9-13,15H2,1-4H3,(H,25,26)/t19-,23-,24+/m0/s1

> <PUBCHEM_IUPAC_INCHIKEY>
POEUPUDPIRTZJS-WDJPJFJCSA-N

> <PUBCHEM_XLOGP3_AA>
4.2

> <PUBCHEM_EXACT_MASS>
402.24062418

> <PUBCHEM_MOLECULAR_FORMULA>
C24H34O5

> <PUBCHEM_MOLECULAR_WEIGHT>
402.5

> <PUBCHEM_OPENEYE_CAN_SMILES>
CC1(CCCC2(C1CCC3=C2C=CC(=C3)C(C)(C)O)C)COC(=O)CCC(=O)O

> <PUBCHEM_OPENEYE_ISO_SMILES>
C[C@]1(CCC[C@]2([C@H]1CCC3=C2C=CC(=C3)C(C)(C)O)C)COC(=O)CCC(=O)O

> <PUBCHEM_CACTVS_TPSA>
83.8

> <PUBCHEM_MONOISOTOPIC_WEIGHT>
402.24062418

> <PUBCHEM_TOTAL_CHARGE>
0

> <PUBCHEM_HEAVY_ATOM_COUNT>
29

> <PUBCHEM_ATOM_DEF_STEREO_COUNT>
3

> <PUBCHEM_ATOM_UDEF_STEREO_COUNT>
0

> <PUBCHEM_BOND_DEF_STEREO_COUNT>
0

> <PUBCHEM_BOND_UDEF_STEREO_COUNT>
0

> <PUBCHEM_ISOTOPIC_ATOM_COUNT>
0

> <PUBCHEM_COMPONENT_COUNT>
1

> <PUBCHEM_CACTVS_TAUTO_COUNT>
1

> <PUBCHEM_COORDINATE_TYPE>
1
5
255

> <PUBCHEM_BONDANNOTATIONS>
13  18  8
13  19  8
18  20  8
19  22  8
20  21  8
21  22  8
6  30  6
7  15  5
8  17  5

$$$$
