46230211
  -OEChem-05162310102D

 66 69  0     1  0  0  0  0  0999 V2000
    5.2664    3.3763    0.0000 O   0  0  0  0  0  0  0  0  0  0  0  0
    5.2664    4.3763    0.0000 O   0  0  0  0  0  0  0  0  0  0  0  0
    3.5033   -1.5100    0.0000 O   0  0  0  0  0  0  0  0  0  0  0  0
    2.0000   -2.3702    0.0000 O   0  0  0  0  0  0  0  0  0  0  0  0
    2.9866   -5.8382    0.0000 O   0  0  0  0  0  0  0  0  0  0  0  0
    4.4900   -4.9779    0.0000 O   0  0  0  0  0  0  0  0  0  0  0  0
    4.4164    1.8348    0.0000 C   0  0  1  0  0  0  0  0  0  0  0  0
    3.5184    1.3070    0.0000 C   0  0  2  0  0  0  0  0  0  0  0  0
    4.4003    2.8763    0.0000 C   0  0  2  0  0  0  0  0  0  0  0  0
    3.5100    0.2221    0.0000 C   0  0  1  0  0  0  0  0  0  0  0  0
    5.3683    1.3142    0.0000 C   0  0  0  0  0  0  0  0  0  0  0  0
    2.6163    1.8278    0.0000 C   0  0  0  0  0  0  0  0  0  0  0  0
    3.5343    3.3763    0.0000 C   0  0  0  0  0  0  0  0  0  0  0  0
    4.0004    3.4763    0.0000 C   0  0  0  0  0  0  0  0  0  0  0  0
    4.4496   -0.3204    0.0000 C   0  0  0  0  0  0  0  0  0  0  0  0
    2.6243    2.8694    0.0000 C   0  0  0  0  0  0  0  0  0  0  0  0
    5.3851    0.2293    0.0000 C   0  0  0  0  0  0  0  0  0  0  0  0
    4.4003    4.8763    0.0000 C   0  0  2  0  0  0  0  0  0  0  0  0
    5.2786    2.3414    0.0000 C   0  0  0  0  0  0  0  0  0  0  0  0
    4.0004    4.2763    0.0000 C   0  0  0  0  0  0  0  0  0  0  0  0
    3.5343    4.3763    0.0000 C   0  0  0  0  0  0  0  0  0  0  0  0
    3.0067   -0.6420    0.0000 C   0  0  0  0  0  0  0  0  0  0  0  0
    2.5100    0.2259    0.0000 C   0  0  0  0  0  0  0  0  0  0  0  0
    4.4003    5.8763    0.0000 C   0  0  0  0  0  0  0  0  0  0  0  0
    5.2664    6.3763    0.0000 C   0  0  0  0  0  0  0  0  0  0  0  0
    3.5343    6.3763    0.0000 C   0  0  0  0  0  0  0  0  0  0  0  0
    3.0000   -2.3741    0.0000 C   0  0  0  0  0  0  0  0  0  0  0  0
    3.4966   -3.2420    0.0000 C   0  0  0  0  0  0  0  0  0  0  0  0
    2.9933   -4.1061    0.0000 C   0  0  0  0  0  0  0  0  0  0  0  0
    3.4900   -4.9741    0.0000 C   0  0  0  0  0  0  0  0  0  0  0  0
    2.7806    0.8849    0.0000 H   0  0  0  0  0  0  0  0  0  0  0  0
    5.9807    1.2175    0.0000 H   0  0  0  0  0  0  0  0  0  0  0  0
    5.5684    1.9010    0.0000 H   0  0  0  0  0  0  0  0  0  0  0  0
    2.0063    1.9386    0.0000 H   0  0  0  0  0  0  0  0  0  0  0  0
    2.4027    1.2458    0.0000 H   0  0  0  0  0  0  0  0  0  0  0  0
    3.4133    3.6758    0.0000 H   0  0  0  0  0  0  0  0  0  0  0  0
    4.5937    3.6559    0.0000 H   0  0  0  0  0  0  0  0  0  0  0  0
    4.0523   -0.7964    0.0000 H   0  0  0  0  0  0  0  0  0  0  0  0
    4.8506   -0.7933    0.0000 H   0  0  0  0  0  0  0  0  0  0  0  0
    2.4198    3.4547    0.0000 H   0  0  0  0  0  0  0  0  0  0  0  0
    2.0127    2.7680    0.0000 H   0  0  0  0  0  0  0  0  0  0  0  0
    5.6031   -0.3511    0.0000 H   0  0  0  0  0  0  0  0  0  0  0  0
    5.9942    0.3448    0.0000 H   0  0  0  0  0  0  0  0  0  0  0  0
    5.5927    1.8069    0.0000 H   0  0  0  0  0  0  0  0  0  0  0  0
    5.8131    2.6556    0.0000 H   0  0  0  0  0  0  0  0  0  0  0  0
    4.9644    2.8760    0.0000 H   0  0  0  0  0  0  0  0  0  0  0  0
    3.6226    4.7679    0.0000 H   0  0  0  0  0  0  0  0  0  0  0  0
    4.5937    4.0966    0.0000 H   0  0  0  0  0  0  0  0  0  0  0  0
    2.9974    4.6863    0.0000 H   0  0  0  0  0  0  0  0  0  0  0  0
    2.5333   -0.2417    0.0000 H   0  0  0  0  0  0  0  0  0  0  0  0
    2.5302   -1.0387    0.0000 H   0  0  0  0  0  0  0  0  0  0  0  0
    2.5124    0.8459    0.0000 H   0  0  0  0  0  0  0  0  0  0  0  0
    1.8900    0.2283    0.0000 H   0  0  0  0  0  0  0  0  0  0  0  0
    2.5076   -0.3941    0.0000 H   0  0  0  0  0  0  0  0  0  0  0  0
    3.8634    5.5663    0.0000 H   0  0  0  0  0  0  0  0  0  0  0  0
    5.5764    5.8393    0.0000 H   0  0  0  0  0  0  0  0  0  0  0  0
    5.8033    6.6863    0.0000 H   0  0  0  0  0  0  0  0  0  0  0  0
    4.9564    6.9132    0.0000 H   0  0  0  0  0  0  0  0  0  0  0  0
    3.8443    6.9132    0.0000 H   0  0  0  0  0  0  0  0  0  0  0  0
    2.9974    6.6863    0.0000 H   0  0  0  0  0  0  0  0  0  0  0  0
    3.2243    5.8393    0.0000 H   0  0  0  0  0  0  0  0  0  0  0  0
    3.9701   -3.6424    0.0000 H   0  0  0  0  0  0  0  0  0  0  0  0
    3.9731   -2.8453    0.0000 H   0  0  0  0  0  0  0  0  0  0  0  0
    2.5199   -3.7058    0.0000 H   0  0  0  0  0  0  0  0  0  0  0  0
    2.5168   -4.5028    0.0000 H   0  0  0  0  0  0  0  0  0  0  0  0
    3.2946   -6.3763    0.0000 H   0  0  0  0  0  0  0  0  0  0  0  0
  1  2  1  0  0  0  0
  9  1  1  6  0  0  0
  2 18  1  0  0  0  0
  3 22  1  0  0  0  0
  3 27  1  0  0  0  0
  4 27  2  0  0  0  0
  5 30  1  0  0  0  0
  5 66  1  0  0  0  0
  6 30  2  0  0  0  0
  7  8  1  0  0  0  0
  7  9  1  0  0  0  0
  7 11  1  0  0  0  0
  7 19  1  6  0  0  0
  8 10  1  0  0  0  0
  8 12  1  0  0  0  0
  8 31  1  1  0  0  0
  9 13  1  0  0  0  0
  9 14  1  0  0  0  0
 10 15  1  0  0  0  0
 10 22  1  0  0  0  0
 10 23  1  6  0  0  0
 11 17  1  0  0  0  0
 11 32  1  0  0  0  0
 11 33  1  0  0  0  0
 12 16  1  0  0  0  0
 12 34  1  0  0  0  0
 12 35  1  0  0  0  0
 13 16  1  0  0  0  0
 13 21  2  0  0  0  0
 14 20  1  0  0  0  0
 14 36  1  0  0  0  0
 14 37  1  0  0  0  0
 15 17  1  0  0  0  0
 15 38  1  0  0  0  0
 15 39  1  0  0  0  0
 16 40  1  0  0  0  0
 16 41  1  0  0  0  0
 17 42  1  0  0  0  0
 17 43  1  0  0  0  0
 18 20  1  0  0  0  0
 18 21  1  0  0  0  0
 18 24  1  1  0  0  0
 19 44  1  0  0  0  0
 19 45  1  0  0  0  0
 19 46  1  0  0  0  0
 20 47  1  0  0  0  0
 20 48  1  0  0  0  0
 21 49  1  0  0  0  0
 22 50  1  0  0  0  0
 22 51  1  0  0  0  0
 23 52  1  0  0  0  0
 23 53  1  0  0  0  0
 23 54  1  0  0  0  0
 24 25  1  0  0  0  0
 24 26  1  0  0  0  0
 24 55  1  0  0  0  0
 25 56  1  0  0  0  0
 25 57  1  0  0  0  0
 25 58  1  0  0  0  0
 26 59  1  0  0  0  0
 26 60  1  0  0  0  0
 26 61  1  0  0  0  0
 27 28  1  0  0  0  0
 28 29  1  0  0  0  0
 28 62  1  0  0  0  0
 28 63  1  0  0  0  0
 29 30  1  0  0  0  0
 29 64  1  0  0  0  0
 29 65  1  0  0  0  0
M  END
> <PUBCHEM_COMPOUND_CID>
46230211

> <PUBCHEM_COMPOUND_CANONICALIZED>
1

> <PUBCHEM_CACTVS_COMPLEXITY>
759

> <PUBCHEM_CACTVS_HBOND_ACCEPTOR>
6

> <PUBCHEM_CACTVS_HBOND_DONOR>
1

> <PUBCHEM_CACTVS_ROTATABLE_BOND>
7

> <PUBCHEM_CACTVS_SUBSKEYS>
AAADcfB4OAAAAAAAAAAAAAAAAAAAAAAAAAA0YIECAAAAAADAAAAAGgAADAAAD0SggAICCAAABgCIAiDSCAAAAAAgAAAACAEAAAgABBIAAQACUAAEgAAIAAPD4PwPgAAAAAAAAAAAAAYAADAAAAAAAAAAAA==

> <PUBCHEM_IUPAC_OPENEYE_NAME>
4-[[(1S,2S,6R,7S,12S)-12-isopropyl-2,6-dimethyl-13,14-dioxatetracyclo[10.2.2.01,10.02,7]hexadec-10-en-6-yl]methoxy]-4-oxo-butanoic acid

> <PUBCHEM_IUPAC_CAS_NAME>
4-[[(1S,2S,6R,7S,12S)-2,6-dimethyl-12-propan-2-yl-13,14-dioxatetracyclo[10.2.2.01,10.02,7]hexadec-10-en-6-yl]methoxy]-4-oxobutanoic acid

> <PUBCHEM_IUPAC_NAME_MARKUP>
4-[[(1<I>S</I>,2<I>S</I>,6<I>R</I>,7<I>S</I>,12<I>S</I>)-2,6-dimethyl-12-propan-2-yl-13,14-dioxatetracyclo[10.2.2.0<SUP>1,10</SUP>.0<SUP>2,7</SUP>]hexadec-10-en-6-yl]methoxy]-4-oxobutanoic acid

> <PUBCHEM_IUPAC_NAME>
4-[[(1S,2S,6R,7S,12S)-2,6-dimethyl-12-propan-2-yl-13,14-dioxatetracyclo[10.2.2.01,10.02,7]hexadec-10-en-6-yl]methoxy]-4-oxobutanoic acid

> <PUBCHEM_IUPAC_SYSTEMATIC_NAME>
4-[[(1S,2S,6R,7S,12S)-2,6-dimethyl-12-propan-2-yl-13,14-dioxatetracyclo[10.2.2.01,10.02,7]hexadec-10-en-6-yl]methoxy]-4-oxidanylidene-butanoic acid

> <PUBCHEM_IUPAC_TRADITIONAL_NAME>
4-[[(1S,2S,6R,7S,12S)-12-isopropyl-2,6-dimethyl-13,14-dioxatetracyclo[10.2.2.01,10.02,7]hexadec-10-en-6-yl]methoxy]-4-keto-butyric acid

> <PUBCHEM_IUPAC_INCHI>
InChI=1S/C24H36O6/c1-16(2)23-12-13-24(30-29-23)17(14-23)6-7-18-21(3,10-5-11-22(18,24)4)15-28-20(27)9-8-19(25)26/h14,16,18H,5-13,15H2,1-4H3,(H,25,26)/t18-,21-,22-,23+,24-/m0/s1

> <PUBCHEM_IUPAC_INCHIKEY>
ADFNVLJQSYGXIL-PKBMHHEFSA-N

> <PUBCHEM_XLOGP3_AA>
3.9

> <PUBCHEM_EXACT_MASS>
420.25118886

> <PUBCHEM_MOLECULAR_FORMULA>
C24H36O6

> <PUBCHEM_MOLECULAR_WEIGHT>
420.5

> <PUBCHEM_OPENEYE_CAN_SMILES>
CC(C)C12CCC3(C(=C1)CCC4C3(CCCC4(C)COC(=O)CCC(=O)O)C)OO2

> <PUBCHEM_OPENEYE_ISO_SMILES>
CC(C)[C@@]12CC[C@@]3(C(=C1)CC[C@@H]4[C@@]3(CCC[C@@]4(C)COC(=O)CCC(=O)O)C)OO2

> <PUBCHEM_CACTVS_TPSA>
82.1

> <PUBCHEM_MONOISOTOPIC_WEIGHT>
420.25118886

> <PUBCHEM_TOTAL_CHARGE>
0

> <PUBCHEM_HEAVY_ATOM_COUNT>
30

> <PUBCHEM_ATOM_DEF_STEREO_COUNT>
5

> <PUBCHEM_ATOM_UDEF_STEREO_COUNT>
0

> <PUBCHEM_BOND_DEF_STEREO_COUNT>
0

> <PUBCHEM_BOND_UDEF_STEREO_COUNT>
0

> <PUBCHEM_ISOTOPIC_ATOM_COUNT>
0

> <PUBCHEM_COMPONENT_COUNT>
1

> <PUBCHEM_CACTVS_TAUTO_COUNT>
-1

> <PUBCHEM_COORDINATE_TYPE>
1
5
255

> <PUBCHEM_BONDANNOTATIONS>
9  1  6
10  23  6
18  24  5
7  19  6
8  31  5

$$$$
