46230129
  -OEChem-05162308392D

 54 56  0     1  0  0  0  0  0999 V2000
    2.3038   -2.5556    0.0000 O   0  0  0  0  0  0  0  0  0  0  0  0
    3.8137   -3.4042    0.0000 O   0  0  0  0  0  0  0  0  0  0  0  0
    9.0736    2.4042    0.0000 O   0  0  0  0  0  0  0  0  0  0  0  0
    4.6876   -1.1376    0.0000 C   0  0  2  0  0  0  0  0  0  0  0  0
    4.6876   -0.1376    0.0000 C   0  0  2  0  0  0  0  0  0  0  0  0
    3.7937   -1.6722    0.0000 C   0  0  2  0  0  0  0  0  0  0  0  0
    3.7937    0.3971    0.0000 C   0  0  0  0  0  0  0  0  0  0  0  0
    5.5536   -1.6376    0.0000 C   0  0  0  0  0  0  0  0  0  0  0  0
    2.8876   -1.1584    0.0000 C   0  0  0  0  0  0  0  0  0  0  0  0
    2.8876   -0.1168    0.0000 C   0  0  0  0  0  0  0  0  0  0  0  0
    5.5536    0.3624    0.0000 C   0  0  0  0  0  0  0  0  0  0  0  0
    6.4196   -1.1376    0.0000 C   0  0  0  0  0  0  0  0  0  0  0  0
    4.6876    0.8624    0.0000 C   0  0  0  0  0  0  0  0  0  0  0  0
    6.4196   -0.1376    0.0000 C   0  0  0  0  0  0  0  0  0  0  0  0
    4.3036   -2.5324    0.0000 C   0  0  0  0  0  0  0  0  0  0  0  0
    3.3037   -2.5440    0.0000 C   0  0  0  0  0  0  0  0  0  0  0  0
    5.5376    1.4039    0.0000 C   0  0  0  0  0  0  0  0  0  0  0  0
    7.3296    0.3693    0.0000 C   0  0  0  0  0  0  0  0  0  0  0  0
    7.3377    1.4109    0.0000 C   0  0  0  0  0  0  0  0  0  0  0  0
    6.4356    1.9317    0.0000 C   0  0  0  0  0  0  0  0  0  0  0  0
    8.2056    1.9075    0.0000 C   0  0  0  0  0  0  0  0  0  0  0  0
    7.7090    2.7755    0.0000 C   0  0  0  0  0  0  0  0  0  0  0  0
    8.7023    1.0396    0.0000 C   0  0  0  0  0  0  0  0  0  0  0  0
    9.0774    3.4042    0.0000 C   0  0  0  0  0  0  0  0  0  0  0  0
    4.6941   -1.9876    0.0000 H   0  0  0  0  0  0  0  0  0  0  0  0
    4.1982    0.8669    0.0000 H   0  0  0  0  0  0  0  0  0  0  0  0
    3.4000    0.8761    0.0000 H   0  0  0  0  0  0  0  0  0  0  0  0
    5.1551   -2.1125    0.0000 H   0  0  0  0  0  0  0  0  0  0  0  0
    5.9521   -2.1125    0.0000 H   0  0  0  0  0  0  0  0  0  0  0  0
    2.2767   -1.0523    0.0000 H   0  0  0  0  0  0  0  0  0  0  0  0
    2.6785   -1.7421    0.0000 H   0  0  0  0  0  0  0  0  0  0  0  0
    2.6785    0.4669    0.0000 H   0  0  0  0  0  0  0  0  0  0  0  0
    2.2767   -0.2229    0.0000 H   0  0  0  0  0  0  0  0  0  0  0  0
    6.6317   -1.7202    0.0000 H   0  0  0  0  0  0  0  0  0  0  0  0
    7.0302   -1.0299    0.0000 H   0  0  0  0  0  0  0  0  0  0  0  0
    5.3076    0.8624    0.0000 H   0  0  0  0  0  0  0  0  0  0  0  0
    4.6876    1.4824    0.0000 H   0  0  0  0  0  0  0  0  0  0  0  0
    4.0676    0.8624    0.0000 H   0  0  0  0  0  0  0  0  0  0  0  0
    3.7703   -2.8486    0.0000 H   0  0  0  0  0  0  0  0  0  0  0  0
    4.6198   -3.0657    0.0000 H   0  0  0  0  0  0  0  0  0  0  0  0
    4.8370   -2.2162    0.0000 H   0  0  0  0  0  0  0  0  0  0  0  0
    4.9971    1.7077    0.0000 H   0  0  0  0  0  0  0  0  0  0  0  0
    7.8630    0.0531    0.0000 H   0  0  0  0  0  0  0  0  0  0  0  0
    6.4332    2.5517    0.0000 H   0  0  0  0  0  0  0  0  0  0  0  0
    2.0000   -3.0960    0.0000 H   0  0  0  0  0  0  0  0  0  0  0  0
    8.2471    3.0834    0.0000 H   0  0  0  0  0  0  0  0  0  0  0  0
    7.4010    3.3136    0.0000 H   0  0  0  0  0  0  0  0  0  0  0  0
    7.1708    2.4675    0.0000 H   0  0  0  0  0  0  0  0  0  0  0  0
    8.1642    0.7316    0.0000 H   0  0  0  0  0  0  0  0  0  0  0  0
    9.0102    0.5015    0.0000 H   0  0  0  0  0  0  0  0  0  0  0  0
    9.2404    1.3475    0.0000 H   0  0  0  0  0  0  0  0  0  0  0  0
    9.6974    3.4018    0.0000 H   0  0  0  0  0  0  0  0  0  0  0  0
    9.0798    4.0242    0.0000 H   0  0  0  0  0  0  0  0  0  0  0  0
    8.4574    3.4066    0.0000 H   0  0  0  0  0  0  0  0  0  0  0  0
  1 16  1  0  0  0  0
  1 45  1  0  0  0  0
  2 16  2  0  0  0  0
  3 21  1  0  0  0  0
  3 24  1  0  0  0  0
  4  5  1  0  0  0  0
  4  6  1  0  0  0  0
  4  8  1  0  0  0  0
  4 25  1  6  0  0  0
  5  7  1  0  0  0  0
  5 11  1  0  0  0  0
  5 13  1  1  0  0  0
  6  9  1  0  0  0  0
  6 15  1  1  0  0  0
  6 16  1  0  0  0  0
  7 10  1  0  0  0  0
  7 26  1  0  0  0  0
  7 27  1  0  0  0  0
  8 12  1  0  0  0  0
  8 28  1  0  0  0  0
  8 29  1  0  0  0  0
  9 10  1  0  0  0  0
  9 30  1  0  0  0  0
  9 31  1  0  0  0  0
 10 32  1  0  0  0  0
 10 33  1  0  0  0  0
 11 14  2  0  0  0  0
 11 17  1  0  0  0  0
 12 14  1  0  0  0  0
 12 34  1  0  0  0  0
 12 35  1  0  0  0  0
 13 36  1  0  0  0  0
 13 37  1  0  0  0  0
 13 38  1  0  0  0  0
 14 18  1  0  0  0  0
 15 39  1  0  0  0  0
 15 40  1  0  0  0  0
 15 41  1  0  0  0  0
 17 20  2  0  0  0  0
 17 42  1  0  0  0  0
 18 19  2  0  0  0  0
 18 43  1  0  0  0  0
 19 20  1  0  0  0  0
 19 21  1  0  0  0  0
 20 44  1  0  0  0  0
 21 22  1  0  0  0  0
 21 23  1  0  0  0  0
 22 46  1  0  0  0  0
 22 47  1  0  0  0  0
 22 48  1  0  0  0  0
 23 49  1  0  0  0  0
 23 50  1  0  0  0  0
 23 51  1  0  0  0  0
 24 52  1  0  0  0  0
 24 53  1  0  0  0  0
 24 54  1  0  0  0  0
M  END
> <PUBCHEM_COMPOUND_CID>
46230129

> <PUBCHEM_COMPOUND_CANONICALIZED>
1

> <PUBCHEM_CACTVS_COMPLEXITY>
499

> <PUBCHEM_CACTVS_HBOND_ACCEPTOR>
3

> <PUBCHEM_CACTVS_HBOND_DONOR>
1

> <PUBCHEM_CACTVS_ROTATABLE_BOND>
3

> <PUBCHEM_CACTVS_SUBSKEYS>
AAADceB4MAAAAAAAAAAAAAAAAAAAAAAAAAAwYMAAAAAAAADBAAAAGgAACAAAD0SAmAIyCIAABgCIAiDSCAACAAAgAAAIiAEACIgIJjKAMRiAcAAkwAEIqAeIyPCPwAACAAAQAACAAAQAACAAAAAAAAAAAA==

> <PUBCHEM_IUPAC_OPENEYE_NAME>
(1R,4aS,10aR)-7-(1-methoxy-1-methyl-ethyl)-1,4a-dimethyl-2,3,4,9,10,10a-hexahydrophenanthrene-1-carboxylic acid

> <PUBCHEM_IUPAC_CAS_NAME>
(1R,4aS,10aR)-7-(2-methoxypropan-2-yl)-1,4a-dimethyl-2,3,4,9,10,10a-hexahydrophenanthrene-1-carboxylic acid

> <PUBCHEM_IUPAC_NAME_MARKUP>
(1<I>R</I>,4<I>a</I><I>S</I>,10<I>a</I><I>R</I>)-7-(2-methoxypropan-2-yl)-1,4<I>a</I>-dimethyl-2,3,4,9,10,10<I>a</I>-hexahydrophenanthrene-1-carboxylic acid

> <PUBCHEM_IUPAC_NAME>
(1R,4aS,10aR)-7-(2-methoxypropan-2-yl)-1,4a-dimethyl-2,3,4,9,10,10a-hexahydrophenanthrene-1-carboxylic acid

> <PUBCHEM_IUPAC_SYSTEMATIC_NAME>
(1R,4aS,10aR)-7-(2-methoxypropan-2-yl)-1,4a-dimethyl-2,3,4,9,10,10a-hexahydrophenanthrene-1-carboxylic acid

> <PUBCHEM_IUPAC_TRADITIONAL_NAME>
(1R,4aS,10aR)-7-(1-methoxy-1-methyl-ethyl)-1,4a-dimethyl-2,3,4,9,10,10a-hexahydrophenanthrene-1-carboxylic acid

> <PUBCHEM_IUPAC_INCHI>
InChI=1S/C21H30O3/c1-19(2,24-5)15-8-9-16-14(13-15)7-10-17-20(16,3)11-6-12-21(17,4)18(22)23/h8-9,13,17H,6-7,10-12H2,1-5H3,(H,22,23)/t17-,20-,21-/m1/s1

> <PUBCHEM_IUPAC_INCHIKEY>
QBAITYMIZWFOLG-DUXKGJEZSA-N

> <PUBCHEM_XLOGP3_AA>
4.7

> <PUBCHEM_EXACT_MASS>
330.21949481

> <PUBCHEM_MOLECULAR_FORMULA>
C21H30O3

> <PUBCHEM_MOLECULAR_WEIGHT>
330.5

> <PUBCHEM_OPENEYE_CAN_SMILES>
CC12CCCC(C1CCC3=C2C=CC(=C3)C(C)(C)OC)(C)C(=O)O

> <PUBCHEM_OPENEYE_ISO_SMILES>
C[C@]12CCC[C@@]([C@@H]1CCC3=C2C=CC(=C3)C(C)(C)OC)(C)C(=O)O

> <PUBCHEM_CACTVS_TPSA>
46.5

> <PUBCHEM_MONOISOTOPIC_WEIGHT>
330.21949481

> <PUBCHEM_TOTAL_CHARGE>
0

> <PUBCHEM_HEAVY_ATOM_COUNT>
24

> <PUBCHEM_ATOM_DEF_STEREO_COUNT>
3

> <PUBCHEM_ATOM_UDEF_STEREO_COUNT>
0

> <PUBCHEM_BOND_DEF_STEREO_COUNT>
0

> <PUBCHEM_BOND_UDEF_STEREO_COUNT>
0

> <PUBCHEM_ISOTOPIC_ATOM_COUNT>
0

> <PUBCHEM_COMPONENT_COUNT>
1

> <PUBCHEM_CACTVS_TAUTO_COUNT>
1

> <PUBCHEM_COORDINATE_TYPE>
1
5
255

> <PUBCHEM_BONDANNOTATIONS>
11  14  8
11  17  8
14  18  8
17  20  8
18  19  8
19  20  8
4  25  6
5  13  5
6  15  5

$$$$
