46230209
  -OEChem-05162310102D

 72 74  0     1  0  0  0  0  0999 V2000
    6.0897   -1.5265    0.0000 O   0  0  0  0  0  0  0  0  0  0  0  0
   12.1236    2.4361    0.0000 O   0  0  0  0  0  0  0  0  0  0  0  0
   11.0716   -0.6085    0.0000 O   0  0  0  0  0  0  0  0  0  0  0  0
    6.1097   -3.2584    0.0000 O   0  0  0  0  0  0  0  0  0  0  0  0
    2.6200   -4.1648    0.0000 O   0  0  0  0  0  0  0  0  0  0  0  0
    2.5999   -2.4329    0.0000 O   0  0  0  0  0  0  0  0  0  0  0  0
    8.4735   -0.1085    0.0000 C   0  0  2  0  0  0  0  0  0  0  0  0
    8.4735    0.8915    0.0000 C   0  0  1  0  0  0  0  0  0  0  0  0
    7.5796   -0.6431    0.0000 C   0  0  1  0  0  0  0  0  0  0  0  0
    9.3395    1.3915    0.0000 C   0  0  2  0  0  0  0  0  0  0  0  0
    7.5796    1.4262    0.0000 C   0  0  0  0  0  0  0  0  0  0  0  0
    9.3395   -0.6085    0.0000 C   0  0  0  0  0  0  0  0  0  0  0  0
    6.6735   -0.1293    0.0000 C   0  0  0  0  0  0  0  0  0  0  0  0
    6.6735    0.9123    0.0000 C   0  0  0  0  0  0  0  0  0  0  0  0
   10.2056    0.8915    0.0000 C   0  0  0  0  0  0  0  0  0  0  0  0
    8.6473   -1.0933    0.0000 C   0  0  0  0  0  0  0  0  0  0  0  0
    8.4735    1.8915    0.0000 C   0  0  0  0  0  0  0  0  0  0  0  0
    9.3235    2.4330    0.0000 C   0  0  0  0  0  0  0  0  0  0  0  0
    7.0896   -1.5149    0.0000 C   0  0  0  0  0  0  0  0  0  0  0  0
   10.2056   -0.1085    0.0000 C   0  0  0  0  0  0  0  0  0  0  0  0
    7.9324   -1.5788    0.0000 C   0  0  0  0  0  0  0  0  0  0  0  0
   10.2215    2.9608    0.0000 C   0  0  0  0  0  0  0  0  0  0  0  0
   11.1236    2.4400    0.0000 C   0  0  1  0  0  0  0  0  0  0  0  0
   11.1156    1.3984    0.0000 C   0  0  0  0  0  0  0  0  0  0  0  0
   11.6269    3.3040    0.0000 C   0  0  0  0  0  0  0  0  0  0  0  0
   11.1303    4.1720    0.0000 C   0  0  0  0  0  0  0  0  0  0  0  0
   12.6269    3.3002    0.0000 C   0  0  0  0  0  0  0  0  0  0  0  0
    5.5997   -2.3982    0.0000 C   0  0  0  0  0  0  0  0  0  0  0  0
   12.6202    1.5682    0.0000 C   0  0  0  0  0  0  0  0  0  0  0  0
    4.5998   -2.4098    0.0000 C   0  0  0  0  0  0  0  0  0  0  0  0
    4.1098   -3.2815    0.0000 C   0  0  0  0  0  0  0  0  0  0  0  0
    3.1099   -3.2931    0.0000 C   0  0  0  0  0  0  0  0  0  0  0  0
   10.0724    1.8222    0.0000 H   0  0  0  0  0  0  0  0  0  0  0  0
    7.9842    1.8960    0.0000 H   0  0  0  0  0  0  0  0  0  0  0  0
    7.1859    1.9052    0.0000 H   0  0  0  0  0  0  0  0  0  0  0  0
    8.9410   -1.0834    0.0000 H   0  0  0  0  0  0  0  0  0  0  0  0
    9.7381   -1.0834    0.0000 H   0  0  0  0  0  0  0  0  0  0  0  0
    6.0626   -0.0232    0.0000 H   0  0  0  0  0  0  0  0  0  0  0  0
    6.4644   -0.7130    0.0000 H   0  0  0  0  0  0  0  0  0  0  0  0
    6.4644    1.4960    0.0000 H   0  0  0  0  0  0  0  0  0  0  0  0
    6.0626    0.8062    0.0000 H   0  0  0  0  0  0  0  0  0  0  0  0
    8.0367   -1.2010    0.0000 H   0  0  0  0  0  0  0  0  0  0  0  0
    8.7550   -1.7038    0.0000 H   0  0  0  0  0  0  0  0  0  0  0  0
    9.2578   -0.9856    0.0000 H   0  0  0  0  0  0  0  0  0  0  0  0
    9.0935    1.8915    0.0000 H   0  0  0  0  0  0  0  0  0  0  0  0
    8.4735    2.5115    0.0000 H   0  0  0  0  0  0  0  0  0  0  0  0
    7.8535    1.8915    0.0000 H   0  0  0  0  0  0  0  0  0  0  0  0
    9.1054    3.0134    0.0000 H   0  0  0  0  0  0  0  0  0  0  0  0
    8.7143    2.3175    0.0000 H   0  0  0  0  0  0  0  0  0  0  0  0
    6.9890   -2.1267    0.0000 H   0  0  0  0  0  0  0  0  0  0  0  0
    7.6746   -1.7202    0.0000 H   0  0  0  0  0  0  0  0  0  0  0  0
    7.3523   -1.7976    0.0000 H   0  0  0  0  0  0  0  0  0  0  0  0
    8.1512   -2.1589    0.0000 H   0  0  0  0  0  0  0  0  0  0  0  0
    8.5125   -1.3600    0.0000 H   0  0  0  0  0  0  0  0  0  0  0  0
   10.6188    3.4368    0.0000 H   0  0  0  0  0  0  0  0  0  0  0  0
    9.8206    3.4337    0.0000 H   0  0  0  0  0  0  0  0  0  0  0  0
   11.6489    1.0822    0.0000 H   0  0  0  0  0  0  0  0  0  0  0  0
   11.9390    3.8398    0.0000 H   0  0  0  0  0  0  0  0  0  0  0  0
   11.6684    4.4799    0.0000 H   0  0  0  0  0  0  0  0  0  0  0  0
   10.8223    4.7101    0.0000 H   0  0  0  0  0  0  0  0  0  0  0  0
   10.5921    3.8641    0.0000 H   0  0  0  0  0  0  0  0  0  0  0  0
   12.6245    2.6802    0.0000 H   0  0  0  0  0  0  0  0  0  0  0  0
   13.2469    3.2978    0.0000 H   0  0  0  0  0  0  0  0  0  0  0  0
   12.6293    3.9202    0.0000 H   0  0  0  0  0  0  0  0  0  0  0  0
   12.0821    1.2602    0.0000 H   0  0  0  0  0  0  0  0  0  0  0  0
   12.9282    1.0300    0.0000 H   0  0  0  0  0  0  0  0  0  0  0  0
   13.1584    1.8761    0.0000 H   0  0  0  0  0  0  0  0  0  0  0  0
    4.7004   -1.7980    0.0000 H   0  0  0  0  0  0  0  0  0  0  0  0
    4.0148   -2.2045    0.0000 H   0  0  0  0  0  0  0  0  0  0  0  0
    4.0092   -3.8933    0.0000 H   0  0  0  0  0  0  0  0  0  0  0  0
    4.6949   -3.4868    0.0000 H   0  0  0  0  0  0  0  0  0  0  0  0
    2.0000   -4.1720    0.0000 H   0  0  0  0  0  0  0  0  0  0  0  0
  1 19  1  0  0  0  0
  1 28  1  0  0  0  0
 23  2  1  6  0  0  0
  2 29  1  0  0  0  0
  3 20  2  0  0  0  0
  4 28  2  0  0  0  0
  5 32  1  0  0  0  0
  5 72  1  0  0  0  0
  6 32  2  0  0  0  0
  7  8  1  0  0  0  0
  7  9  1  0  0  0  0
  7 12  1  0  0  0  0
  7 16  1  6  0  0  0
  8 10  1  0  0  0  0
  8 11  1  0  0  0  0
  8 17  1  1  0  0  0
  9 13  1  0  0  0  0
  9 19  1  0  0  0  0
  9 21  1  1  0  0  0
 10 15  1  0  0  0  0
 10 18  1  0  0  0  0
 10 33  1  6  0  0  0
 11 14  1  0  0  0  0
 11 34  1  0  0  0  0
 11 35  1  0  0  0  0
 12 20  1  0  0  0  0
 12 36  1  0  0  0  0
 12 37  1  0  0  0  0
 13 14  1  0  0  0  0
 13 38  1  0  0  0  0
 13 39  1  0  0  0  0
 14 40  1  0  0  0  0
 14 41  1  0  0  0  0
 15 20  1  0  0  0  0
 15 24  2  0  0  0  0
 16 42  1  0  0  0  0
 16 43  1  0  0  0  0
 16 44  1  0  0  0  0
 17 45  1  0  0  0  0
 17 46  1  0  0  0  0
 17 47  1  0  0  0  0
 18 22  1  0  0  0  0
 18 48  1  0  0  0  0
 18 49  1  0  0  0  0
 19 50  1  0  0  0  0
 19 51  1  0  0  0  0
 21 52  1  0  0  0  0
 21 53  1  0  0  0  0
 21 54  1  0  0  0  0
 22 23  1  0  0  0  0
 22 55  1  0  0  0  0
 22 56  1  0  0  0  0
 23 24  1  0  0  0  0
 23 25  1  0  0  0  0
 24 57  1  0  0  0  0
 25 26  1  0  0  0  0
 25 27  1  0  0  0  0
 25 58  1  0  0  0  0
 26 59  1  0  0  0  0
 26 60  1  0  0  0  0
 26 61  1  0  0  0  0
 27 62  1  0  0  0  0
 27 63  1  0  0  0  0
 27 64  1  0  0  0  0
 28 30  1  0  0  0  0
 29 65  1  0  0  0  0
 29 66  1  0  0  0  0
 29 67  1  0  0  0  0
 30 31  1  0  0  0  0
 30 68  1  0  0  0  0
 30 69  1  0  0  0  0
 31 32  1  0  0  0  0
 31 70  1  0  0  0  0
 31 71  1  0  0  0  0
M  END
> <PUBCHEM_COMPOUND_CID>
46230209

> <PUBCHEM_COMPOUND_CANONICALIZED>
1

> <PUBCHEM_CACTVS_COMPLEXITY>
815

> <PUBCHEM_CACTVS_HBOND_ACCEPTOR>
6

> <PUBCHEM_CACTVS_HBOND_DONOR>
1

> <PUBCHEM_CACTVS_ROTATABLE_BOND>
8

> <PUBCHEM_CACTVS_SUBSKEYS>
AAADcfB4OAAAAAAAAAAAAAAAAAAAAAAAAAAwYIAAAAAAAADAAAAAGgAACAAAD0SggAICCAAABgCIAqDSCAAAAAAgAAAACAEAAEgABBIAIQACUAAEgAAIIYPLzPCPgAAAAAAAAAAAAAQAACAAAAAAAAAAAA==

> <PUBCHEM_IUPAC_OPENEYE_NAME>
4-[[(1R,4aR,4bR,7R,10aR)-7-isopropyl-7-methoxy-1,4a,10a-trimethyl-9-oxo-3,4,4b,5,6,10-hexahydro-2H-phenanthren-1-yl]methoxy]-4-oxo-butanoic acid

> <PUBCHEM_IUPAC_CAS_NAME>
4-[[(1R,4aR,4bR,7R,10aR)-7-methoxy-1,4a,10a-trimethyl-9-oxo-7-propan-2-yl-3,4,4b,5,6,10-hexahydro-2H-phenanthren-1-yl]methoxy]-4-oxobutanoic acid

> <PUBCHEM_IUPAC_NAME_MARKUP>
4-[[(1<I>R</I>,4<I>a</I><I>R</I>,4<I>b</I><I>R</I>,7<I>R</I>,10<I>a</I><I>R</I>)-7-methoxy-1,4<I>a</I>,10<I>a</I>-trimethyl-9-oxo-7-propan-2-yl-3,4,4<I>b</I>,5,6,10-hexahydro-2<I>H</I>-phenanthren-1-yl]methoxy]-4-oxobutanoic acid

> <PUBCHEM_IUPAC_NAME>
4-[[(1R,4aR,4bR,7R,10aR)-7-methoxy-1,4a,10a-trimethyl-9-oxo-7-propan-2-yl-3,4,4b,5,6,10-hexahydro-2H-phenanthren-1-yl]methoxy]-4-oxobutanoic acid

> <PUBCHEM_IUPAC_SYSTEMATIC_NAME>
4-[[(1R,4aR,4bR,7R,10aR)-7-methoxy-1,4a,10a-trimethyl-9-oxidanylidene-7-propan-2-yl-3,4,4b,5,6,10-hexahydro-2H-phenanthren-1-yl]methoxy]-4-oxidanylidene-butanoic acid

> <PUBCHEM_IUPAC_TRADITIONAL_NAME>
4-[[(1R,4aR,4bR,7R,10aR)-7-isopropyl-9-keto-7-methoxy-1,4a,10a-trimethyl-3,4,4b,5,6,10-hexahydro-2H-phenanthren-1-yl]methoxy]-4-keto-butyric acid

> <PUBCHEM_IUPAC_INCHI>
InChI=1S/C26H40O6/c1-17(2)26(31-6)13-10-19-18(14-26)20(27)15-25(5)23(3,11-7-12-24(19,25)4)16-32-22(30)9-8-21(28)29/h14,17,19H,7-13,15-16H2,1-6H3,(H,28,29)/t19-,23-,24+,25-,26-/m0/s1

> <PUBCHEM_IUPAC_INCHIKEY>
NASOHMFLGZORKU-CIHKHTDDSA-N

> <PUBCHEM_XLOGP3_AA>
4.2

> <PUBCHEM_EXACT_MASS>
448.28248899

> <PUBCHEM_MOLECULAR_FORMULA>
C26H40O6

> <PUBCHEM_MOLECULAR_WEIGHT>
448.6

> <PUBCHEM_OPENEYE_CAN_SMILES>
CC(C)C1(CCC2C(=C1)C(=O)CC3(C2(CCCC3(C)COC(=O)CCC(=O)O)C)C)OC

> <PUBCHEM_OPENEYE_ISO_SMILES>
CC(C)[C@@]1(CC[C@H]2C(=C1)C(=O)C[C@@]3([C@@]2(CCC[C@@]3(C)COC(=O)CCC(=O)O)C)C)OC

> <PUBCHEM_CACTVS_TPSA>
89.9

> <PUBCHEM_MONOISOTOPIC_WEIGHT>
448.28248899

> <PUBCHEM_TOTAL_CHARGE>
0

> <PUBCHEM_HEAVY_ATOM_COUNT>
32

> <PUBCHEM_ATOM_DEF_STEREO_COUNT>
5

> <PUBCHEM_ATOM_UDEF_STEREO_COUNT>
0

> <PUBCHEM_BOND_DEF_STEREO_COUNT>
0

> <PUBCHEM_BOND_UDEF_STEREO_COUNT>
0

> <PUBCHEM_ISOTOPIC_ATOM_COUNT>
0

> <PUBCHEM_COMPONENT_COUNT>
1

> <PUBCHEM_CACTVS_TAUTO_COUNT>
-1

> <PUBCHEM_COORDINATE_TYPE>
1
5
255

> <PUBCHEM_BONDANNOTATIONS>
10  33  6
23  2  6
7  16  6
8  17  5
9  21  5

$$$$
