46230210
  -OEChem-05162310102D

 72 74  0     1  0  0  0  0  0999 V2000
    6.4697   -1.5243    0.0000 O   0  0  0  0  0  0  0  0  0  0  0  0
   11.4516   -0.6063    0.0000 O   0  0  0  0  0  0  0  0  0  0  0  0
   12.5036    2.4383    0.0000 O   0  0  0  0  0  0  0  0  0  0  0  0
    6.4897   -3.2562    0.0000 O   0  0  0  0  0  0  0  0  0  0  0  0
    2.9999   -4.1626    0.0000 O   0  0  0  0  0  0  0  0  0  0  0  0
    2.9799   -2.4307    0.0000 O   0  0  0  0  0  0  0  0  0  0  0  0
    8.8535   -0.1063    0.0000 C   0  0  2  0  0  0  0  0  0  0  0  0
    8.8535    0.8937    0.0000 C   0  0  1  0  0  0  0  0  0  0  0  0
    7.9595   -0.6409    0.0000 C   0  0  1  0  0  0  0  0  0  0  0  0
    9.7195    1.3937    0.0000 C   0  0  2  0  0  0  0  0  0  0  0  0
    7.9595    1.4284    0.0000 C   0  0  0  0  0  0  0  0  0  0  0  0
    9.7195   -0.6063    0.0000 C   0  0  0  0  0  0  0  0  0  0  0  0
    7.0535   -0.1271    0.0000 C   0  0  0  0  0  0  0  0  0  0  0  0
    7.0535    0.9145    0.0000 C   0  0  0  0  0  0  0  0  0  0  0  0
   10.5855    0.8937    0.0000 C   0  0  0  0  0  0  0  0  0  0  0  0
    9.0272   -1.0911    0.0000 C   0  0  0  0  0  0  0  0  0  0  0  0
    8.8535    1.8937    0.0000 C   0  0  0  0  0  0  0  0  0  0  0  0
    9.7034    2.4352    0.0000 C   0  0  0  0  0  0  0  0  0  0  0  0
    7.4696   -1.5127    0.0000 C   0  0  0  0  0  0  0  0  0  0  0  0
   10.5855   -0.1063    0.0000 C   0  0  0  0  0  0  0  0  0  0  0  0
    8.3124   -1.5766    0.0000 C   0  0  0  0  0  0  0  0  0  0  0  0
   10.6015    2.9630    0.0000 C   0  0  0  0  0  0  0  0  0  0  0  0
   11.5036    2.4422    0.0000 C   0  0  2  0  0  0  0  0  0  0  0  0
   11.4955    1.4006    0.0000 C   0  0  0  0  0  0  0  0  0  0  0  0
   12.0069    3.3062    0.0000 C   0  0  0  0  0  0  0  0  0  0  0  0
   11.5102    4.1742    0.0000 C   0  0  0  0  0  0  0  0  0  0  0  0
   13.0069    3.3024    0.0000 C   0  0  0  0  0  0  0  0  0  0  0  0
    5.9797   -2.3960    0.0000 C   0  0  0  0  0  0  0  0  0  0  0  0
    4.9798   -2.4076    0.0000 C   0  0  0  0  0  0  0  0  0  0  0  0
    4.4898   -3.2793    0.0000 C   0  0  0  0  0  0  0  0  0  0  0  0
    3.4899   -3.2909    0.0000 C   0  0  0  0  0  0  0  0  0  0  0  0
    2.0000   -4.1742    0.0000 C   0  0  0  0  0  0  0  0  0  0  0  0
   10.4523    1.8244    0.0000 H   0  0  0  0  0  0  0  0  0  0  0  0
    8.3641    1.8982    0.0000 H   0  0  0  0  0  0  0  0  0  0  0  0
    7.5659    1.9074    0.0000 H   0  0  0  0  0  0  0  0  0  0  0  0
    9.3210   -1.0812    0.0000 H   0  0  0  0  0  0  0  0  0  0  0  0
   10.1180   -1.0812    0.0000 H   0  0  0  0  0  0  0  0  0  0  0  0
    6.4426   -0.0210    0.0000 H   0  0  0  0  0  0  0  0  0  0  0  0
    6.8444   -0.7108    0.0000 H   0  0  0  0  0  0  0  0  0  0  0  0
    6.8444    1.4982    0.0000 H   0  0  0  0  0  0  0  0  0  0  0  0
    6.4426    0.8084    0.0000 H   0  0  0  0  0  0  0  0  0  0  0  0
    8.4167   -1.1988    0.0000 H   0  0  0  0  0  0  0  0  0  0  0  0
    9.1350   -1.7016    0.0000 H   0  0  0  0  0  0  0  0  0  0  0  0
    9.6378   -0.9834    0.0000 H   0  0  0  0  0  0  0  0  0  0  0  0
    9.4735    1.8937    0.0000 H   0  0  0  0  0  0  0  0  0  0  0  0
    8.8535    2.5137    0.0000 H   0  0  0  0  0  0  0  0  0  0  0  0
    8.2335    1.8937    0.0000 H   0  0  0  0  0  0  0  0  0  0  0  0
    9.4854    3.0156    0.0000 H   0  0  0  0  0  0  0  0  0  0  0  0
    9.0943    2.3197    0.0000 H   0  0  0  0  0  0  0  0  0  0  0  0
    7.3690   -2.1245    0.0000 H   0  0  0  0  0  0  0  0  0  0  0  0
    8.0546   -1.7180    0.0000 H   0  0  0  0  0  0  0  0  0  0  0  0
    7.7323   -1.7954    0.0000 H   0  0  0  0  0  0  0  0  0  0  0  0
    8.5312   -2.1567    0.0000 H   0  0  0  0  0  0  0  0  0  0  0  0
    8.8925   -1.3578    0.0000 H   0  0  0  0  0  0  0  0  0  0  0  0
   10.9988    3.4389    0.0000 H   0  0  0  0  0  0  0  0  0  0  0  0
   10.2005    3.4359    0.0000 H   0  0  0  0  0  0  0  0  0  0  0  0
   12.0289    1.0844    0.0000 H   0  0  0  0  0  0  0  0  0  0  0  0
   12.3190    3.8420    0.0000 H   0  0  0  0  0  0  0  0  0  0  0  0
   12.8115    1.9002    0.0000 H   0  0  0  0  0  0  0  0  0  0  0  0
   12.0484    4.4821    0.0000 H   0  0  0  0  0  0  0  0  0  0  0  0
   11.2023    4.7123    0.0000 H   0  0  0  0  0  0  0  0  0  0  0  0
   10.9721    3.8663    0.0000 H   0  0  0  0  0  0  0  0  0  0  0  0
   13.0045    2.6824    0.0000 H   0  0  0  0  0  0  0  0  0  0  0  0
   13.6269    3.3000    0.0000 H   0  0  0  0  0  0  0  0  0  0  0  0
   13.0093    3.9224    0.0000 H   0  0  0  0  0  0  0  0  0  0  0  0
    5.0804   -1.7958    0.0000 H   0  0  0  0  0  0  0  0  0  0  0  0
    4.3948   -2.2023    0.0000 H   0  0  0  0  0  0  0  0  0  0  0  0
    4.3892   -3.8911    0.0000 H   0  0  0  0  0  0  0  0  0  0  0  0
    5.0748   -3.4846    0.0000 H   0  0  0  0  0  0  0  0  0  0  0  0
    1.9928   -3.5542    0.0000 H   0  0  0  0  0  0  0  0  0  0  0  0
    1.3800   -4.1814    0.0000 H   0  0  0  0  0  0  0  0  0  0  0  0
    2.0072   -4.7942    0.0000 H   0  0  0  0  0  0  0  0  0  0  0  0
  1 19  1  0  0  0  0
  1 28  1  0  0  0  0
  2 20  2  0  0  0  0
 23  3  1  1  0  0  0
  3 59  1  0  0  0  0
  4 28  2  0  0  0  0
  5 31  1  0  0  0  0
  5 32  1  0  0  0  0
  6 31  2  0  0  0  0
  7  8  1  0  0  0  0
  7  9  1  0  0  0  0
  7 12  1  0  0  0  0
  7 16  1  6  0  0  0
  8 10  1  0  0  0  0
  8 11  1  0  0  0  0
  8 17  1  1  0  0  0
  9 13  1  0  0  0  0
  9 19  1  0  0  0  0
  9 21  1  1  0  0  0
 10 15  1  0  0  0  0
 10 18  1  0  0  0  0
 10 33  1  6  0  0  0
 11 14  1  0  0  0  0
 11 34  1  0  0  0  0
 11 35  1  0  0  0  0
 12 20  1  0  0  0  0
 12 36  1  0  0  0  0
 12 37  1  0  0  0  0
 13 14  1  0  0  0  0
 13 38  1  0  0  0  0
 13 39  1  0  0  0  0
 14 40  1  0  0  0  0
 14 41  1  0  0  0  0
 15 20  1  0  0  0  0
 15 24  2  0  0  0  0
 16 42  1  0  0  0  0
 16 43  1  0  0  0  0
 16 44  1  0  0  0  0
 17 45  1  0  0  0  0
 17 46  1  0  0  0  0
 17 47  1  0  0  0  0
 18 22  1  0  0  0  0
 18 48  1  0  0  0  0
 18 49  1  0  0  0  0
 19 50  1  0  0  0  0
 19 51  1  0  0  0  0
 21 52  1  0  0  0  0
 21 53  1  0  0  0  0
 21 54  1  0  0  0  0
 22 23  1  0  0  0  0
 22 55  1  0  0  0  0
 22 56  1  0  0  0  0
 23 24  1  0  0  0  0
 23 25  1  0  0  0  0
 24 57  1  0  0  0  0
 25 26  1  0  0  0  0
 25 27  1  0  0  0  0
 25 58  1  0  0  0  0
 26 60  1  0  0  0  0
 26 61  1  0  0  0  0
 26 62  1  0  0  0  0
 27 63  1  0  0  0  0
 27 64  1  0  0  0  0
 27 65  1  0  0  0  0
 28 29  1  0  0  0  0
 29 30  1  0  0  0  0
 29 66  1  0  0  0  0
 29 67  1  0  0  0  0
 30 31  1  0  0  0  0
 30 68  1  0  0  0  0
 30 69  1  0  0  0  0
 32 70  1  0  0  0  0
 32 71  1  0  0  0  0
 32 72  1  0  0  0  0
M  END
> <PUBCHEM_COMPOUND_CID>
46230210

> <PUBCHEM_COMPOUND_CANONICALIZED>
1

> <PUBCHEM_CACTVS_COMPLEXITY>
815

> <PUBCHEM_CACTVS_HBOND_ACCEPTOR>
6

> <PUBCHEM_CACTVS_HBOND_DONOR>
1

> <PUBCHEM_CACTVS_ROTATABLE_BOND>
8

> <PUBCHEM_CACTVS_SUBSKEYS>
AAADcfB4OAAAAAAAAAAAAAAAAAAAAAAAAAAwYIAAAAAAAADAAAAAGgAACAAAD0SggAICCAAABgCIAqDSCAAAAAAgAAAACAEAAEgABBIAAQACUAAEgAAIEYPLzPCPgAAAAAAAAAAAAAQAACAAAAAAAAAAAA==

> <PUBCHEM_IUPAC_OPENEYE_NAME>
O4-[[(1R,4aR,4bR,7S,10aR)-7-hydroxy-7-isopropyl-1,4a,10a-trimethyl-9-oxo-3,4,4b,5,6,10-hexahydro-2H-phenanthren-1-yl]methyl] O1-methyl butanedioate

> <PUBCHEM_IUPAC_CAS_NAME>
butanedioic acid O4-[[(1R,4aR,4bR,7S,10aR)-7-hydroxy-1,4a,10a-trimethyl-9-oxo-7-propan-2-yl-3,4,4b,5,6,10-hexahydro-2H-phenanthren-1-yl]methyl] ester O1-methyl ester

> <PUBCHEM_IUPAC_NAME_MARKUP>
4-<I>O</I>-[[(1<I>R</I>,4<I>a</I><I>R</I>,4<I>b</I><I>R</I>,7<I>S</I>,10<I>a</I><I>R</I>)-7-hydroxy-1,4<I>a</I>,10<I>a</I>-trimethyl-9-oxo-7-propan-2-yl-3,4,4<I>b</I>,5,6,10-hexahydro-2<I>H</I>-phenanthren-1-yl]methyl] 1-<I>O</I>-methyl butanedioate

> <PUBCHEM_IUPAC_NAME>
4-O-[[(1R,4aR,4bR,7S,10aR)-7-hydroxy-1,4a,10a-trimethyl-9-oxo-7-propan-2-yl-3,4,4b,5,6,10-hexahydro-2H-phenanthren-1-yl]methyl] 1-O-methyl butanedioate

> <PUBCHEM_IUPAC_SYSTEMATIC_NAME>
O4-[[(1R,4aR,4bR,7S,10aR)-1,4a,10a-trimethyl-7-oxidanyl-9-oxidanylidene-7-propan-2-yl-3,4,4b,5,6,10-hexahydro-2H-phenanthren-1-yl]methyl] O1-methyl butanedioate

> <PUBCHEM_IUPAC_TRADITIONAL_NAME>
succinic acid O4-[[(1R,4aR,4bR,7S,10aR)-7-hydroxy-7-isopropyl-9-keto-1,4a,10a-trimethyl-3,4,4b,5,6,10-hexahydro-2H-phenanthren-1-yl]methyl] ester O1-methyl ester

> <PUBCHEM_IUPAC_INCHI>
InChI=1S/C26H40O6/c1-17(2)26(30)13-10-19-18(14-26)20(27)15-25(5)23(3,11-7-12-24(19,25)4)16-32-22(29)9-8-21(28)31-6/h14,17,19,30H,7-13,15-16H2,1-6H3/t19-,23-,24+,25-,26+/m0/s1

> <PUBCHEM_IUPAC_INCHIKEY>
AHBQIYSLXQMIEO-WBZPMCRCSA-N

> <PUBCHEM_XLOGP3_AA>
3.9

> <PUBCHEM_EXACT_MASS>
448.28248899

> <PUBCHEM_MOLECULAR_FORMULA>
C26H40O6

> <PUBCHEM_MOLECULAR_WEIGHT>
448.6

> <PUBCHEM_OPENEYE_CAN_SMILES>
CC(C)C1(CCC2C(=C1)C(=O)CC3(C2(CCCC3(C)COC(=O)CCC(=O)OC)C)C)O

> <PUBCHEM_OPENEYE_ISO_SMILES>
CC(C)[C@]1(CC[C@H]2C(=C1)C(=O)C[C@@]3([C@@]2(CCC[C@@]3(C)COC(=O)CCC(=O)OC)C)C)O

> <PUBCHEM_CACTVS_TPSA>
89.9

> <PUBCHEM_MONOISOTOPIC_WEIGHT>
448.28248899

> <PUBCHEM_TOTAL_CHARGE>
0

> <PUBCHEM_HEAVY_ATOM_COUNT>
32

> <PUBCHEM_ATOM_DEF_STEREO_COUNT>
5

> <PUBCHEM_ATOM_UDEF_STEREO_COUNT>
0

> <PUBCHEM_BOND_DEF_STEREO_COUNT>
0

> <PUBCHEM_BOND_UDEF_STEREO_COUNT>
0

> <PUBCHEM_ISOTOPIC_ATOM_COUNT>
0

> <PUBCHEM_COMPONENT_COUNT>
1

> <PUBCHEM_CACTVS_TAUTO_COUNT>
-1

> <PUBCHEM_COORDINATE_TYPE>
1
5
255

> <PUBCHEM_BONDANNOTATIONS>
10  33  6
23  3  5
7  16  6
8  17  5
9  21  5

$$$$
