46230126
  -OEChem-05162308502D

 66 68  0     1  0  0  0  0  0999 V2000
    6.4697   -1.4649    0.0000 O   0  0  0  0  0  0  0  0  0  0  0  0
   13.2395    3.4948    0.0000 O   0  0  0  0  0  0  0  0  0  0  0  0
    6.4897   -3.1968    0.0000 O   0  0  0  0  0  0  0  0  0  0  0  0
    2.9999   -4.1033    0.0000 O   0  0  0  0  0  0  0  0  0  0  0  0
    2.9799   -2.3713    0.0000 O   0  0  0  0  0  0  0  0  0  0  0  0
    8.8535   -0.0469    0.0000 C   0  0  2  0  0  0  0  0  0  0  0  0
    8.8535    0.9531    0.0000 C   0  0  2  0  0  0  0  0  0  0  0  0
    7.9595   -0.5816    0.0000 C   0  0  1  0  0  0  0  0  0  0  0  0
    7.9595    1.4877    0.0000 C   0  0  0  0  0  0  0  0  0  0  0  0
    7.0535   -0.0677    0.0000 C   0  0  0  0  0  0  0  0  0  0  0  0
    9.7195   -0.5469    0.0000 C   0  0  0  0  0  0  0  0  0  0  0  0
    7.0535    0.9739    0.0000 C   0  0  0  0  0  0  0  0  0  0  0  0
    9.7195    1.4531    0.0000 C   0  0  0  0  0  0  0  0  0  0  0  0
   10.5855   -0.0469    0.0000 C   0  0  0  0  0  0  0  0  0  0  0  0
    8.8535    1.9531    0.0000 C   0  0  0  0  0  0  0  0  0  0  0  0
    7.4696   -1.4533    0.0000 C   0  0  0  0  0  0  0  0  0  0  0  0
    8.4695   -1.4418    0.0000 C   0  0  0  0  0  0  0  0  0  0  0  0
   10.5855    0.9531    0.0000 C   0  0  0  0  0  0  0  0  0  0  0  0
    9.7034    2.4946    0.0000 C   0  0  0  0  0  0  0  0  0  0  0  0
   11.4955    1.4599    0.0000 C   0  0  0  0  0  0  0  0  0  0  0  0
   11.5036    2.5015    0.0000 C   0  0  0  0  0  0  0  0  0  0  0  0
   10.6015    3.0223    0.0000 C   0  0  0  0  0  0  0  0  0  0  0  0
   12.3715    2.9982    0.0000 C   0  0  0  0  0  0  0  0  0  0  0  0
    5.9797   -2.3366    0.0000 C   0  0  0  0  0  0  0  0  0  0  0  0
   11.8749    3.8661    0.0000 C   0  0  0  0  0  0  0  0  0  0  0  0
   12.8682    2.1302    0.0000 C   0  0  0  0  0  0  0  0  0  0  0  0
    4.9798   -2.3482    0.0000 C   0  0  0  0  0  0  0  0  0  0  0  0
    4.4898   -3.2200    0.0000 C   0  0  0  0  0  0  0  0  0  0  0  0
    3.4899   -3.2315    0.0000 C   0  0  0  0  0  0  0  0  0  0  0  0
    2.0000   -4.1148    0.0000 C   0  0  0  0  0  0  0  0  0  0  0  0
    8.8600   -0.8969    0.0000 H   0  0  0  0  0  0  0  0  0  0  0  0
    8.3641    1.9575    0.0000 H   0  0  0  0  0  0  0  0  0  0  0  0
    7.5659    1.9668    0.0000 H   0  0  0  0  0  0  0  0  0  0  0  0
    6.4426    0.0384    0.0000 H   0  0  0  0  0  0  0  0  0  0  0  0
    6.8444   -0.6514    0.0000 H   0  0  0  0  0  0  0  0  0  0  0  0
    9.3210   -1.0219    0.0000 H   0  0  0  0  0  0  0  0  0  0  0  0
   10.1180   -1.0219    0.0000 H   0  0  0  0  0  0  0  0  0  0  0  0
    6.8444    1.5576    0.0000 H   0  0  0  0  0  0  0  0  0  0  0  0
    6.4426    0.8678    0.0000 H   0  0  0  0  0  0  0  0  0  0  0  0
   10.7976   -0.6295    0.0000 H   0  0  0  0  0  0  0  0  0  0  0  0
   11.1961    0.0607    0.0000 H   0  0  0  0  0  0  0  0  0  0  0  0
    9.4735    1.9531    0.0000 H   0  0  0  0  0  0  0  0  0  0  0  0
    8.8535    2.5731    0.0000 H   0  0  0  0  0  0  0  0  0  0  0  0
    8.2335    1.9531    0.0000 H   0  0  0  0  0  0  0  0  0  0  0  0
    7.3690   -2.0651    0.0000 H   0  0  0  0  0  0  0  0  0  0  0  0
    8.0546   -1.6586    0.0000 H   0  0  0  0  0  0  0  0  0  0  0  0
    7.9362   -1.7580    0.0000 H   0  0  0  0  0  0  0  0  0  0  0  0
    8.7857   -1.9751    0.0000 H   0  0  0  0  0  0  0  0  0  0  0  0
    9.0028   -1.1256    0.0000 H   0  0  0  0  0  0  0  0  0  0  0  0
    9.1630    2.7984    0.0000 H   0  0  0  0  0  0  0  0  0  0  0  0
   12.0289    1.1437    0.0000 H   0  0  0  0  0  0  0  0  0  0  0  0
   10.5991    3.6423    0.0000 H   0  0  0  0  0  0  0  0  0  0  0  0
   12.4130    4.1741    0.0000 H   0  0  0  0  0  0  0  0  0  0  0  0
   11.5669    4.4042    0.0000 H   0  0  0  0  0  0  0  0  0  0  0  0
   11.3367    3.5582    0.0000 H   0  0  0  0  0  0  0  0  0  0  0  0
   12.3300    1.8223    0.0000 H   0  0  0  0  0  0  0  0  0  0  0  0
   13.1761    1.5921    0.0000 H   0  0  0  0  0  0  0  0  0  0  0  0
   13.4063    2.4382    0.0000 H   0  0  0  0  0  0  0  0  0  0  0  0
    5.0804   -1.7364    0.0000 H   0  0  0  0  0  0  0  0  0  0  0  0
    4.3948   -2.1429    0.0000 H   0  0  0  0  0  0  0  0  0  0  0  0
   13.2418    4.1148    0.0000 H   0  0  0  0  0  0  0  0  0  0  0  0
    4.3892   -3.8317    0.0000 H   0  0  0  0  0  0  0  0  0  0  0  0
    5.0748   -3.4253    0.0000 H   0  0  0  0  0  0  0  0  0  0  0  0
    1.9928   -3.4949    0.0000 H   0  0  0  0  0  0  0  0  0  0  0  0
    1.3800   -4.1220    0.0000 H   0  0  0  0  0  0  0  0  0  0  0  0
    2.0072   -4.7348    0.0000 H   0  0  0  0  0  0  0  0  0  0  0  0
  1 16  1  0  0  0  0
  1 24  1  0  0  0  0
  2 23  1  0  0  0  0
  2 61  1  0  0  0  0
  3 24  2  0  0  0  0
  4 29  1  0  0  0  0
  4 30  1  0  0  0  0
  5 29  2  0  0  0  0
  6  7  1  0  0  0  0
  6  8  1  0  0  0  0
  6 11  1  0  0  0  0
  6 31  1  6  0  0  0
  7  9  1  0  0  0  0
  7 13  1  0  0  0  0
  7 15  1  1  0  0  0
  8 10  1  0  0  0  0
  8 16  1  0  0  0  0
  8 17  1  1  0  0  0
  9 12  1  0  0  0  0
  9 32  1  0  0  0  0
  9 33  1  0  0  0  0
 10 12  1  0  0  0  0
 10 34  1  0  0  0  0
 10 35  1  0  0  0  0
 11 14  1  0  0  0  0
 11 36  1  0  0  0  0
 11 37  1  0  0  0  0
 12 38  1  0  0  0  0
 12 39  1  0  0  0  0
 13 18  2  0  0  0  0
 13 19  1  0  0  0  0
 14 18  1  0  0  0  0
 14 40  1  0  0  0  0
 14 41  1  0  0  0  0
 15 42  1  0  0  0  0
 15 43  1  0  0  0  0
 15 44  1  0  0  0  0
 16 45  1  0  0  0  0
 16 46  1  0  0  0  0
 17 47  1  0  0  0  0
 17 48  1  0  0  0  0
 17 49  1  0  0  0  0
 18 20  1  0  0  0  0
 19 22  2  0  0  0  0
 19 50  1  0  0  0  0
 20 21  2  0  0  0  0
 20 51  1  0  0  0  0
 21 22  1  0  0  0  0
 21 23  1  0  0  0  0
 22 52  1  0  0  0  0
 23 25  1  0  0  0  0
 23 26  1  0  0  0  0
 24 27  1  0  0  0  0
 25 53  1  0  0  0  0
 25 54  1  0  0  0  0
 25 55  1  0  0  0  0
 26 56  1  0  0  0  0
 26 57  1  0  0  0  0
 26 58  1  0  0  0  0
 27 28  1  0  0  0  0
 27 59  1  0  0  0  0
 27 60  1  0  0  0  0
 28 29  1  0  0  0  0
 28 62  1  0  0  0  0
 28 63  1  0  0  0  0
 30 64  1  0  0  0  0
 30 65  1  0  0  0  0
 30 66  1  0  0  0  0
M  END
> <PUBCHEM_COMPOUND_CID>
46230126

> <PUBCHEM_COMPOUND_CANONICALIZED>
1

> <PUBCHEM_CACTVS_COMPLEXITY>
644

> <PUBCHEM_CACTVS_HBOND_ACCEPTOR>
5

> <PUBCHEM_CACTVS_HBOND_DONOR>
1

> <PUBCHEM_CACTVS_ROTATABLE_BOND>
8

> <PUBCHEM_CACTVS_SUBSKEYS>
AAADcfB4OAAAAAAAAAAAAAAAAAAAAAAAAAAwYMAAAAAAAADBAAAAGgAACAAAD0SgmAIyCIAABgCIAiDSCAACAAAgAAAIiAEACIgIJjKAERCCcAAkwAEImAfDwPAPwAACAAAQAACAAAQAACAAAAAAAAAAAA==

> <PUBCHEM_IUPAC_OPENEYE_NAME>
O4-[[(1R,4aS,10aR)-7-(1-hydroxy-1-methyl-ethyl)-1,4a-dimethyl-2,3,4,9,10,10a-hexahydrophenanthren-1-yl]methyl] O1-methyl butanedioate

> <PUBCHEM_IUPAC_CAS_NAME>
butanedioic acid O4-[[(1R,4aS,10aR)-7-(2-hydroxypropan-2-yl)-1,4a-dimethyl-2,3,4,9,10,10a-hexahydrophenanthren-1-yl]methyl] ester O1-methyl ester

> <PUBCHEM_IUPAC_NAME_MARKUP>
4-<I>O</I>-[[(1<I>R</I>,4<I>a</I><I>S</I>,10<I>a</I><I>R</I>)-7-(2-hydroxypropan-2-yl)-1,4<I>a</I>-dimethyl-2,3,4,9,10,10<I>a</I>-hexahydrophenanthren-1-yl]methyl] 1-<I>O</I>-methyl butanedioate

> <PUBCHEM_IUPAC_NAME>
4-O-[[(1R,4aS,10aR)-7-(2-hydroxypropan-2-yl)-1,4a-dimethyl-2,3,4,9,10,10a-hexahydrophenanthren-1-yl]methyl] 1-O-methyl butanedioate

> <PUBCHEM_IUPAC_SYSTEMATIC_NAME>
O4-[[(1R,4aS,10aR)-1,4a-dimethyl-7-(2-oxidanylpropan-2-yl)-2,3,4,9,10,10a-hexahydrophenanthren-1-yl]methyl] O1-methyl butanedioate

> <PUBCHEM_IUPAC_TRADITIONAL_NAME>
succinic acid O4-[[(1R,4aS,10aR)-7-(1-hydroxy-1-methyl-ethyl)-1,4a-dimethyl-2,3,4,9,10,10a-hexahydrophenanthren-1-yl]methyl] ester O1-methyl ester

> <PUBCHEM_IUPAC_INCHI>
InChI=1S/C25H36O5/c1-23(2,28)18-8-9-19-17(15-18)7-10-20-24(3,13-6-14-25(19,20)4)16-30-22(27)12-11-21(26)29-5/h8-9,15,20,28H,6-7,10-14,16H2,1-5H3/t20-,24-,25+/m0/s1

> <PUBCHEM_IUPAC_INCHIKEY>
RYTFJNDPQQZRLJ-KSNOWIBYSA-N

> <PUBCHEM_XLOGP3_AA>
4.6

> <PUBCHEM_EXACT_MASS>
416.25627424

> <PUBCHEM_MOLECULAR_FORMULA>
C25H36O5

> <PUBCHEM_MOLECULAR_WEIGHT>
416.5

> <PUBCHEM_OPENEYE_CAN_SMILES>
CC1(CCCC2(C1CCC3=C2C=CC(=C3)C(C)(C)O)C)COC(=O)CCC(=O)OC

> <PUBCHEM_OPENEYE_ISO_SMILES>
C[C@]1(CCC[C@]2([C@H]1CCC3=C2C=CC(=C3)C(C)(C)O)C)COC(=O)CCC(=O)OC

> <PUBCHEM_CACTVS_TPSA>
72.8

> <PUBCHEM_MONOISOTOPIC_WEIGHT>
416.25627424

> <PUBCHEM_TOTAL_CHARGE>
0

> <PUBCHEM_HEAVY_ATOM_COUNT>
30

> <PUBCHEM_ATOM_DEF_STEREO_COUNT>
3

> <PUBCHEM_ATOM_UDEF_STEREO_COUNT>
0

> <PUBCHEM_BOND_DEF_STEREO_COUNT>
0

> <PUBCHEM_BOND_UDEF_STEREO_COUNT>
0

> <PUBCHEM_ISOTOPIC_ATOM_COUNT>
0

> <PUBCHEM_COMPONENT_COUNT>
1

> <PUBCHEM_CACTVS_TAUTO_COUNT>
-1

> <PUBCHEM_COORDINATE_TYPE>
1
5
255

> <PUBCHEM_BONDANNOTATIONS>
13  18  8
13  19  8
18  20  8
19  22  8
20  21  8
21  22  8
6  31  6
7  15  5
8  17  5

$$$$
