46230212
  -OEChem-05162310102D

 67 68  0     1  0  0  0  0  0999 V2000
    7.6159    2.0412    0.0000 O   0  0  0  0  0  0  0  0  0  0  0  0
    3.5000   -4.3768    0.0000 O   0  0  0  0  0  0  0  0  0  0  0  0
    7.5958    3.7732    0.0000 O   0  0  0  0  0  0  0  0  0  0  0  0
   11.0856    4.6796    0.0000 O   0  0  0  0  0  0  0  0  0  0  0  0
   11.1056    2.9476    0.0000 O   0  0  0  0  0  0  0  0  0  0  0  0
    5.2320   -0.3768    0.0000 C   0  0  1  0  0  0  0  0  0  0  0  0
    5.2320    0.6232    0.0000 C   0  0  2  0  0  0  0  0  0  0  0  0
    6.1260    1.1579    0.0000 C   0  0  1  0  0  0  0  0  0  0  0  0
    4.3660   -0.8768    0.0000 C   0  0  3  0  0  0  0  0  0  0  0  0
    6.1260   -0.9114    0.0000 C   0  0  0  0  0  0  0  0  0  0  0  0
    4.3660    1.1232    0.0000 C   0  0  0  0  0  0  0  0  0  0  0  0
    7.0321    0.6441    0.0000 C   0  0  0  0  0  0  0  0  0  0  0  0
    7.0321   -0.3976    0.0000 C   0  0  0  0  0  0  0  0  0  0  0  0
    5.2320   -1.3768    0.0000 C   0  0  0  0  0  0  0  0  0  0  0  0
    3.5000    0.6232    0.0000 C   0  0  0  0  0  0  0  0  0  0  0  0
    3.5000   -0.3768    0.0000 C   0  0  0  0  0  0  0  0  0  0  0  0
    4.3660   -1.8768    0.0000 C   0  0  0  0  0  0  0  0  0  0  0  0
    6.6160    2.0296    0.0000 C   0  0  0  0  0  0  0  0  0  0  0  0
    5.6160    2.0181    0.0000 C   0  0  0  0  0  0  0  0  0  0  0  0
    3.5000   -2.3768    0.0000 C   0  0  0  0  0  0  0  0  0  0  0  0
    2.6340   -0.8768    0.0000 C   0  0  0  0  0  0  0  0  0  0  0  0
    3.5000   -3.3768    0.0000 C   0  0  2  0  0  0  0  0  0  0  0  0
    4.5000   -3.3768    0.0000 C   0  0  0  0  0  0  0  0  0  0  0  0
    8.1058    2.9130    0.0000 C   0  0  0  0  0  0  0  0  0  0  0  0
    2.5000   -3.3768    0.0000 C   0  0  0  0  0  0  0  0  0  0  0  0
    9.1058    2.9245    0.0000 C   0  0  0  0  0  0  0  0  0  0  0  0
    2.0000   -4.2428    0.0000 C   0  0  0  0  0  0  0  0  0  0  0  0
    9.5957    3.7963    0.0000 C   0  0  0  0  0  0  0  0  0  0  0  0
   10.5956    3.8078    0.0000 C   0  0  0  0  0  0  0  0  0  0  0  0
    5.2255    1.4732    0.0000 H   0  0  0  0  0  0  0  0  0  0  0  0
    3.8291   -1.1868    0.0000 H   0  0  0  0  0  0  0  0  0  0  0  0
    5.7214   -1.3812    0.0000 H   0  0  0  0  0  0  0  0  0  0  0  0
    6.5196   -1.3904    0.0000 H   0  0  0  0  0  0  0  0  0  0  0  0
    4.7646    1.5982    0.0000 H   0  0  0  0  0  0  0  0  0  0  0  0
    3.9675    1.5982    0.0000 H   0  0  0  0  0  0  0  0  0  0  0  0
    7.6429    0.5380    0.0000 H   0  0  0  0  0  0  0  0  0  0  0  0
    7.2411    1.2277    0.0000 H   0  0  0  0  0  0  0  0  0  0  0  0
    7.2411   -0.9813    0.0000 H   0  0  0  0  0  0  0  0  0  0  0  0
    7.6429   -0.2915    0.0000 H   0  0  0  0  0  0  0  0  0  0  0  0
    4.6120   -1.3768    0.0000 H   0  0  0  0  0  0  0  0  0  0  0  0
    5.2320   -1.9968    0.0000 H   0  0  0  0  0  0  0  0  0  0  0  0
    5.8520   -1.3768    0.0000 H   0  0  0  0  0  0  0  0  0  0  0  0
    3.2880    1.2058    0.0000 H   0  0  0  0  0  0  0  0  0  0  0  0
    2.8894    0.5156    0.0000 H   0  0  0  0  0  0  0  0  0  0  0  0
    4.5781   -2.4594    0.0000 H   0  0  0  0  0  0  0  0  0  0  0  0
    4.9766   -1.7691    0.0000 H   0  0  0  0  0  0  0  0  0  0  0  0
    6.7165    2.6414    0.0000 H   0  0  0  0  0  0  0  0  0  0  0  0
    6.0309    2.2350    0.0000 H   0  0  0  0  0  0  0  0  0  0  0  0
    6.1493    2.3343    0.0000 H   0  0  0  0  0  0  0  0  0  0  0  0
    5.2998    2.5514    0.0000 H   0  0  0  0  0  0  0  0  0  0  0  0
    5.0827    1.7019    0.0000 H   0  0  0  0  0  0  0  0  0  0  0  0
    3.2880   -1.7942    0.0000 H   0  0  0  0  0  0  0  0  0  0  0  0
    2.8894   -2.4844    0.0000 H   0  0  0  0  0  0  0  0  0  0  0  0
    2.0970   -0.5668    0.0000 H   0  0  0  0  0  0  0  0  0  0  0  0
    2.6340   -1.4968    0.0000 H   0  0  0  0  0  0  0  0  0  0  0  0
    4.5000   -3.9968    0.0000 H   0  0  0  0  0  0  0  0  0  0  0  0
    5.1200   -3.3768    0.0000 H   0  0  0  0  0  0  0  0  0  0  0  0
    4.5000   -2.7568    0.0000 H   0  0  0  0  0  0  0  0  0  0  0  0
    2.1900   -2.8398    0.0000 H   0  0  0  0  0  0  0  0  0  0  0  0
    2.9631   -4.6868    0.0000 H   0  0  0  0  0  0  0  0  0  0  0  0
    9.0052    2.3127    0.0000 H   0  0  0  0  0  0  0  0  0  0  0  0
    9.6908    2.7192    0.0000 H   0  0  0  0  0  0  0  0  0  0  0  0
    1.3800   -4.2428    0.0000 H   0  0  0  0  0  0  0  0  0  0  0  0
    2.3100   -4.7797    0.0000 H   0  0  0  0  0  0  0  0  0  0  0  0
    9.6963    4.4081    0.0000 H   0  0  0  0  0  0  0  0  0  0  0  0
    9.0107    4.0016    0.0000 H   0  0  0  0  0  0  0  0  0  0  0  0
   11.7056    4.6868    0.0000 H   0  0  0  0  0  0  0  0  0  0  0  0
  1 18  1  0  0  0  0
  1 24  1  0  0  0  0
 22  2  1  6  0  0  0
  2 60  1  0  0  0  0
  3 24  2  0  0  0  0
  4 29  1  0  0  0  0
  4 67  1  0  0  0  0
  5 29  2  0  0  0  0
  6  7  1  0  0  0  0
  6  9  1  0  0  0  0
  6 10  1  0  0  0  0
  6 14  1  1  0  0  0
  7  8  1  0  0  0  0
  7 11  1  0  0  0  0
  7 30  1  6  0  0  0
  8 12  1  0  0  0  0
  8 18  1  0  0  0  0
  8 19  1  1  0  0  0
  9 16  1  0  0  0  0
  9 17  1  0  0  0  0
  9 31  1  0  0  0  0
 10 13  1  0  0  0  0
 10 32  1  0  0  0  0
 10 33  1  0  0  0  0
 11 15  1  0  0  0  0
 11 34  1  0  0  0  0
 11 35  1  0  0  0  0
 12 13  1  0  0  0  0
 12 36  1  0  0  0  0
 12 37  1  0  0  0  0
 13 38  1  0  0  0  0
 13 39  1  0  0  0  0
 14 40  1  0  0  0  0
 14 41  1  0  0  0  0
 14 42  1  0  0  0  0
 15 16  1  0  0  0  0
 15 43  1  0  0  0  0
 15 44  1  0  0  0  0
 16 21  2  0  0  0  0
 17 20  1  0  0  0  0
 17 45  1  0  0  0  0
 17 46  1  0  0  0  0
 18 47  1  0  0  0  0
 18 48  1  0  0  0  0
 19 49  1  0  0  0  0
 19 50  1  0  0  0  0
 19 51  1  0  0  0  0
 20 22  1  0  0  0  0
 20 52  1  0  0  0  0
 20 53  1  0  0  0  0
 21 54  1  0  0  0  0
 21 55  1  0  0  0  0
 22 23  1  0  0  0  0
 22 25  1  0  0  0  0
 23 56  1  0  0  0  0
 23 57  1  0  0  0  0
 23 58  1  0  0  0  0
 24 26  1  0  0  0  0
 25 27  2  0  0  0  0
 25 59  1  0  0  0  0
 26 28  1  0  0  0  0
 26 61  1  0  0  0  0
 26 62  1  0  0  0  0
 27 63  1  0  0  0  0
 27 64  1  0  0  0  0
 28 29  1  0  0  0  0
 28 65  1  0  0  0  0
 28 66  1  0  0  0  0
M  END
> <PUBCHEM_COMPOUND_CID>
46230212

> <PUBCHEM_COMPOUND_CANONICALIZED>
1

> <PUBCHEM_CACTVS_COMPLEXITY>
656

> <PUBCHEM_CACTVS_HBOND_ACCEPTOR>
5

> <PUBCHEM_CACTVS_HBOND_DONOR>
2

> <PUBCHEM_CACTVS_ROTATABLE_BOND>
10

> <PUBCHEM_CACTVS_SUBSKEYS>
AAADcfB4OAAAAAAAAAAAAAAAAAAAAAAAAAAwYAAAAAAAAADAAAAAGgAACAAAD0SggAICCAAABgCIAiDSCAAAAAAgAAAIAAEAAAgABBIAAQACQAAEgAAAEAHDwPAPgAAAAAAAAAAAAAQAACAAAAAAAAAAAA==

> <PUBCHEM_IUPAC_OPENEYE_NAME>
4-[[(1R,4aR,8aR)-5-[(3S)-3-hydroxy-3-methyl-pent-4-enyl]-1,4a-dimethyl-6-methylene-decalin-1-yl]methoxy]-4-oxo-butanoic acid

> <PUBCHEM_IUPAC_CAS_NAME>
4-[[(1R,4aR,8aR)-5-[(3S)-3-hydroxy-3-methylpent-4-enyl]-1,4a-dimethyl-6-methylene-3,4,5,7,8,8a-hexahydro-2H-naphthalen-1-yl]methoxy]-4-oxobutanoic acid

> <PUBCHEM_IUPAC_NAME_MARKUP>
4-[[(1<I>R</I>,4<I>a</I><I>R</I>,8<I>a</I><I>R</I>)-5-[(3<I>S</I>)-3-hydroxy-3-methylpent-4-enyl]-1,4<I>a</I>-dimethyl-6-methylidene-3,4,5,7,8,8<I>a</I>-hexahydro-2<I>H</I>-naphthalen-1-yl]methoxy]-4-oxobutanoic acid

> <PUBCHEM_IUPAC_NAME>
4-[[(1R,4aR,8aR)-5-[(3S)-3-hydroxy-3-methylpent-4-enyl]-1,4a-dimethyl-6-methylidene-3,4,5,7,8,8a-hexahydro-2H-naphthalen-1-yl]methoxy]-4-oxobutanoic acid

> <PUBCHEM_IUPAC_SYSTEMATIC_NAME>
4-[[(1R,4aR,8aR)-1,4a-dimethyl-6-methylidene-5-[(3S)-3-methyl-3-oxidanyl-pent-4-enyl]-3,4,5,7,8,8a-hexahydro-2H-naphthalen-1-yl]methoxy]-4-oxidanylidene-butanoic acid

> <PUBCHEM_IUPAC_TRADITIONAL_NAME>
4-[[(1R,4aR,8aR)-5-[(3S)-3-hydroxy-3-methyl-pent-4-enyl]-1,4a-dimethyl-6-methylene-decalin-1-yl]methoxy]-4-keto-butyric acid

> <PUBCHEM_IUPAC_INCHI>
InChI=1S/C24H38O5/c1-6-23(4,28)15-12-18-17(2)8-9-19-22(3,13-7-14-24(18,19)5)16-29-21(27)11-10-20(25)26/h6,18-19,28H,1-2,7-16H2,3-5H3,(H,25,26)/t18?,19-,22-,23+,24+/m0/s1

> <PUBCHEM_IUPAC_INCHIKEY>
LMGFVRFXNAGVRH-YLCCNPAXSA-N

> <PUBCHEM_XLOGP3_AA>
4.3

> <PUBCHEM_EXACT_MASS>
406.27192431

> <PUBCHEM_MOLECULAR_FORMULA>
C24H38O5

> <PUBCHEM_MOLECULAR_WEIGHT>
406.6

> <PUBCHEM_OPENEYE_CAN_SMILES>
CC1(CCCC2(C1CCC(=C)C2CCC(C)(C=C)O)C)COC(=O)CCC(=O)O

> <PUBCHEM_OPENEYE_ISO_SMILES>
C[C@]1(CCC[C@]2([C@H]1CCC(=C)C2CC[C@@](C)(C=C)O)C)COC(=O)CCC(=O)O

> <PUBCHEM_CACTVS_TPSA>
83.8

> <PUBCHEM_MONOISOTOPIC_WEIGHT>
406.27192431

> <PUBCHEM_TOTAL_CHARGE>
0

> <PUBCHEM_HEAVY_ATOM_COUNT>
29

> <PUBCHEM_ATOM_DEF_STEREO_COUNT>
4

> <PUBCHEM_ATOM_UDEF_STEREO_COUNT>
1

> <PUBCHEM_BOND_DEF_STEREO_COUNT>
0

> <PUBCHEM_BOND_UDEF_STEREO_COUNT>
0

> <PUBCHEM_ISOTOPIC_ATOM_COUNT>
0

> <PUBCHEM_COMPONENT_COUNT>
1

> <PUBCHEM_CACTVS_TAUTO_COUNT>
-1

> <PUBCHEM_COORDINATE_TYPE>
1
5
255

> <PUBCHEM_BONDANNOTATIONS>
22  2  6
6  14  5
7  30  6
8  19  5
9  17  3

$$$$
