44605339
  -OEChem-05162308092D

 49 53  0     1  0  0  0  0  0999 V2000
    5.3342    1.5319    0.0000 O   0  0  0  0  0  0  0  0  0  0  0  0
    5.5743   -1.5952    0.0000 O   0  0  0  0  0  0  0  0  0  0  0  0
    2.0000   -1.5952    0.0000 O   0  0  0  0  0  0  0  0  0  0  0  0
    3.7872   -0.7995    0.0000 C   0  0  1  0  0  0  0  0  0  0  0  0
    4.6881   -0.3656    0.0000 C   0  0  2  0  0  0  0  0  0  0  0  0
    4.9107    0.6093    0.0000 C   0  0  1  0  0  0  0  0  0  0  0  0
    2.8862   -0.3656    0.0000 C   0  0  2  0  0  0  0  0  0  0  0  0
    4.5962   -1.3873    0.0000 C   0  0  1  0  0  0  0  0  0  0  0  0
    3.2872    1.3911    0.0000 C   0  0  1  0  0  0  0  0  0  0  0  0
    4.2872   -2.3384    0.0000 C   0  0  1  0  0  0  0  0  0  0  0  0
    2.6637    0.6093    0.0000 C   0  0  0  0  0  0  0  0  0  0  0  0
    4.2872    1.3911    0.0000 C   0  0  0  0  0  0  0  0  0  0  0  0
    5.4260   -1.0346    0.0000 C   0  0  0  0  0  0  0  0  0  0  0  0
    2.9782   -1.3873    0.0000 C   0  0  0  0  0  0  0  0  0  0  0  0
    5.2276   -2.0106    0.0000 C   0  0  0  0  0  0  0  0  0  0  0  0
    2.9824    2.3373    0.0000 C   0  0  0  0  0  0  0  0  0  0  0  0
    3.2872   -2.3384    0.0000 C   0  0  0  0  0  0  0  0  0  0  0  0
    5.8662    0.9040    0.0000 C   0  0  0  0  0  0  0  0  0  0  0  0
    3.7872    2.9210    0.0000 C   0  0  0  0  0  0  0  0  0  0  0  0
    4.5919    2.3373    0.0000 C   0  0  0  0  0  0  0  0  0  0  0  0
    2.3960    3.1474    0.0000 C   0  0  0  0  0  0  0  0  0  0  0  0
    2.0308    2.0300    0.0000 C   0  0  0  0  0  0  0  0  0  0  0  0
    2.6994   -3.1474    0.0000 C   0  0  0  0  0  0  0  0  0  0  0  0
    5.4989   -0.1104    0.0000 H   0  0  0  0  0  0  0  0  0  0  0  0
    2.0457   -0.4923    0.0000 H   0  0  0  0  0  0  0  0  0  0  0  0
    4.8484   -0.8209    0.0000 H   0  0  0  0  0  0  0  0  0  0  0  0
    2.4372    1.3911    0.0000 H   0  0  0  0  0  0  0  0  0  0  0  0
    4.0245   -3.1468    0.0000 H   0  0  0  0  0  0  0  0  0  0  0  0
    2.2771    1.0940    0.0000 H   0  0  0  0  0  0  0  0  0  0  0  0
    2.1051    0.3403    0.0000 H   0  0  0  0  0  0  0  0  0  0  0  0
    6.0020   -1.2640    0.0000 H   0  0  0  0  0  0  0  0  0  0  0  0
    5.7542   -0.5085    0.0000 H   0  0  0  0  0  0  0  0  0  0  0  0
    5.3244   -2.6230    0.0000 H   0  0  0  0  0  0  0  0  0  0  0  0
    5.8475   -2.0242    0.0000 H   0  0  0  0  0  0  0  0  0  0  0  0
    6.0490    0.3116    0.0000 H   0  0  0  0  0  0  0  0  0  0  0  0
    6.4587    1.0868    0.0000 H   0  0  0  0  0  0  0  0  0  0  0  0
    5.6835    1.4965    0.0000 H   0  0  0  0  0  0  0  0  0  0  0  0
    4.2019    3.3818    0.0000 H   0  0  0  0  0  0  0  0  0  0  0  0
    3.3724    3.3818    0.0000 H   0  0  0  0  0  0  0  0  0  0  0  0
    5.1812    2.5300    0.0000 H   0  0  0  0  0  0  0  0  0  0  0  0
    6.0351   -2.0101    0.0000 H   0  0  0  0  0  0  0  0  0  0  0  0
    2.8983    3.5109    0.0000 H   0  0  0  0  0  0  0  0  0  0  0  0
    2.0325    3.6496    0.0000 H   0  0  0  0  0  0  0  0  0  0  0  0
    1.8938    2.7838    0.0000 H   0  0  0  0  0  0  0  0  0  0  0  0
    1.8403    2.6200    0.0000 H   0  0  0  0  0  0  0  0  0  0  0  0
    1.4409    1.8394    0.0000 H   0  0  0  0  0  0  0  0  0  0  0  0
    2.2214    1.4400    0.0000 H   0  0  0  0  0  0  0  0  0  0  0  0
    2.0828   -3.0826    0.0000 H   0  0  0  0  0  0  0  0  0  0  0  0
    2.9516   -3.7138    0.0000 H   0  0  0  0  0  0  0  0  0  0  0  0
  1  6  1  0  0  0  0
  1  7  1  0  0  0  0
  8  2  1  6  0  0  0
  2 41  1  0  0  0  0
  3 14  2  0  0  0  0
  4  5  1  0  0  0  0
  4  7  1  0  0  0  0
  4  8  1  0  0  0  0
  4 14  1  1  0  0  0
  5  6  1  0  0  0  0
  5 13  1  0  0  0  0
  5 24  1  1  0  0  0
  6 12  1  0  0  0  0
  6 18  1  6  0  0  0
  7 11  1  0  0  0  0
  7 25  1  1  0  0  0
  8 10  1  0  0  0  0
  8 26  1  0  0  0  0
  9 11  1  0  0  0  0
  9 12  1  0  0  0  0
  9 16  1  0  0  0  0
  9 27  1  1  0  0  0
 10 15  1  0  0  0  0
 10 17  1  0  0  0  0
 10 28  1  6  0  0  0
 11 29  1  0  0  0  0
 11 30  1  0  0  0  0
 12 20  2  0  0  0  0
 13 15  1  0  0  0  0
 13 31  1  0  0  0  0
 13 32  1  0  0  0  0
 14 17  1  0  0  0  0
 15 33  1  0  0  0  0
 15 34  1  0  0  0  0
 16 19  1  0  0  0  0
 16 21  1  0  0  0  0
 16 22  1  0  0  0  0
 17 23  2  0  0  0  0
 18 35  1  0  0  0  0
 18 36  1  0  0  0  0
 18 37  1  0  0  0  0
 19 20  1  0  0  0  0
 19 38  1  0  0  0  0
 19 39  1  0  0  0  0
 20 40  1  0  0  0  0
 21 42  1  0  0  0  0
 21 43  1  0  0  0  0
 21 44  1  0  0  0  0
 22 45  1  0  0  0  0
 22 46  1  0  0  0  0
 22 47  1  0  0  0  0
 23 48  1  0  0  0  0
 23 49  1  0  0  0  0
M  END
> <PUBCHEM_COMPOUND_CID>
44605339

> <PUBCHEM_COMPOUND_CANONICALIZED>
1

> <PUBCHEM_CACTVS_COMPLEXITY>
674

> <PUBCHEM_CACTVS_HBOND_ACCEPTOR>
3

> <PUBCHEM_CACTVS_HBOND_DONOR>
1

> <PUBCHEM_CACTVS_ROTATABLE_BOND>
0

> <PUBCHEM_CACTVS_SUBSKEYS>
AAADceB4MAAAAAAAAAAAAAAAAAAAAaIEAAA0QAAABgwAAEiQAAAAGgAACAAAD1SggAICAAAABgCIAqBSAAAAAAAgAAAACAEAAEgAFBYAIQACUAAF4AAIIIPKyPCPgAAAAAAAAACAAAYAADAAAQAABAAAAA==

> <PUBCHEM_IUPAC_OPENEYE_NAME>
(1S,2S,5S,8R,9S,14R,17R)-17-hydroxy-9,13,13-trimethyl-4-methylene-16-oxapentacyclo[7.6.1.12,5.02,8.010,14]heptadec-10-en-3-one

> <PUBCHEM_IUPAC_CAS_NAME>
(1S,2S,5S,8R,9S,14R,17R)-17-hydroxy-9,13,13-trimethyl-4-methylene-16-oxapentacyclo[7.6.1.12,5.02,8.010,14]heptadec-10-en-3-one

> <PUBCHEM_IUPAC_NAME_MARKUP>
(1<I>S</I>,2<I>S</I>,5<I>S</I>,8<I>R</I>,9<I>S</I>,14<I>R</I>,17<I>R</I>)-17-hydroxy-9,13,13-trimethyl-4-methylidene-16-oxapentacyclo[7.6.1.1<SUP>2,5</SUP>.0<SUP>2,8</SUP>.0<SUP>10,14</SUP>]heptadec-10-en-3-one

> <PUBCHEM_IUPAC_NAME>
(1S,2S,5S,8R,9S,14R,17R)-17-hydroxy-9,13,13-trimethyl-4-methylidene-16-oxapentacyclo[7.6.1.12,5.02,8.010,14]heptadec-10-en-3-one

> <PUBCHEM_IUPAC_SYSTEMATIC_NAME>
(1S,2S,5S,8R,9S,14R,17R)-9,13,13-trimethyl-4-methylidene-17-oxidanyl-16-oxapentacyclo[7.6.1.12,5.02,8.010,14]heptadec-10-en-3-one

> <PUBCHEM_IUPAC_TRADITIONAL_NAME>
(1S,2S,5S,8R,9S,14R,17R)-17-hydroxy-9,13,13-trimethyl-4-methylene-16-oxapentacyclo[7.6.1.12,5.02,8.010,14]heptadec-10-en-3-one

> <PUBCHEM_IUPAC_INCHI>
InChI=1S/C20H26O3/c1-10-11-5-6-14-19(4)12-7-8-18(2,3)13(12)9-15(23-19)20(14,16(10)21)17(11)22/h7,11,13-15,17,22H,1,5-6,8-9H2,2-4H3/t11-,13-,14-,15-,17+,19+,20-/m0/s1

> <PUBCHEM_IUPAC_INCHIKEY>
CYJRXJPSWBHVJE-ZACLSARSSA-N

> <PUBCHEM_XLOGP3_AA>
1.9

> <PUBCHEM_EXACT_MASS>
314.18819469

> <PUBCHEM_MOLECULAR_FORMULA>
C20H26O3

> <PUBCHEM_MOLECULAR_WEIGHT>
314.4

> <PUBCHEM_OPENEYE_CAN_SMILES>
CC1(CC=C2C1CC3C45C(C2(O3)C)CCC(C4O)C(=C)C5=O)C

> <PUBCHEM_OPENEYE_ISO_SMILES>
C[C@@]12[C@@H]3CC[C@@H]4[C@H]([C@@]3([C@@H](O1)C[C@H]5C2=CCC5(C)C)C(=O)C4=C)O

> <PUBCHEM_CACTVS_TPSA>
46.5

> <PUBCHEM_MONOISOTOPIC_WEIGHT>
314.18819469

> <PUBCHEM_TOTAL_CHARGE>
0

> <PUBCHEM_HEAVY_ATOM_COUNT>
23

> <PUBCHEM_ATOM_DEF_STEREO_COUNT>
7

> <PUBCHEM_ATOM_UDEF_STEREO_COUNT>
0

> <PUBCHEM_BOND_DEF_STEREO_COUNT>
0

> <PUBCHEM_BOND_UDEF_STEREO_COUNT>
0

> <PUBCHEM_ISOTOPIC_ATOM_COUNT>
0

> <PUBCHEM_COMPONENT_COUNT>
1

> <PUBCHEM_CACTVS_TAUTO_COUNT>
-1

> <PUBCHEM_COORDINATE_TYPE>
1
5
255

> <PUBCHEM_BONDANNOTATIONS>
10  28  6
8  2  6
4  14  5
5  24  5
6  18  6
7  25  5
9  27  5

$$$$
