71578804
  -OEChem-05162309492D

 63 66  0     1  0  0  0  0  0999 V2000
    8.5915   -0.7874    0.0000 O   0  0  0  0  0  0  0  0  0  0  0  0
    9.3615    0.4330    0.0000 O   0  0  0  0  0  0  0  0  0  0  0  0
    3.4923   -1.7514    0.0000 O   0  0  0  0  0  0  0  0  0  0  0  0
    7.7504   -2.3016    0.0000 O   0  0  0  0  0  0  0  0  0  0  0  0
    3.5076   -3.4834    0.0000 O   0  0  0  0  0  0  0  0  0  0  0  0
    5.9201    0.7239    0.0000 C   0  0  1  0  0  0  0  0  0  0  0  0
    6.8275    1.2353    0.0000 C   0  0  1  0  0  0  0  0  0  0  0  0
    7.6960    0.7396    0.0000 C   0  0  1  0  0  0  0  0  0  0  0  0
    5.9172   -0.3177    0.0000 C   0  0  1  0  0  0  0  0  0  0  0  0
    7.7173   -0.3018    0.0000 C   0  0  1  0  0  0  0  0  0  0  0  0
    4.9846   -0.8721    0.0000 C   0  0  2  0  0  0  0  0  0  0  0  0
    6.8219   -0.8341    0.0000 C   0  0  0  0  0  0  0  0  0  0  0  0
    7.6716    1.9209    0.0000 C   0  0  0  0  0  0  0  0  0  0  0  0
    6.6736    2.2233    0.0000 C   0  0  0  0  0  0  0  0  0  0  0  0
    4.9904    1.2833    0.0000 C   0  0  0  0  0  0  0  0  0  0  0  0
    8.3476    2.8900    0.0000 C   0  0  1  0  0  0  0  0  0  0  0  0
    7.3501    2.9598    0.0000 C   0  0  0  0  0  0  0  0  0  0  0  0
    8.6251    1.1096    0.0000 C   0  0  0  0  0  0  0  0  0  0  0  0
    4.0422   -0.3343    0.0000 C   0  0  0  0  0  0  0  0  0  0  0  0
    5.5806    1.6645    0.0000 C   0  0  0  0  0  0  0  0  0  0  0  0
    4.0452    0.7507    0.0000 C   0  0  0  0  0  0  0  0  0  0  0  0
    8.9151    2.0666    0.0000 C   0  0  0  0  0  0  0  0  0  0  0  0
    4.4922   -1.7425    0.0000 C   0  0  0  0  0  0  0  0  0  0  0  0
    5.4922   -1.7337    0.0000 C   0  0  0  0  0  0  0  0  0  0  0  0
    9.9032    2.2206    0.0000 C   0  0  0  0  0  0  0  0  0  0  0  0
    8.6080   -1.7873    0.0000 C   0  0  0  0  0  0  0  0  0  0  0  0
    9.4822   -2.2729    0.0000 C   0  0  0  0  0  0  0  0  0  0  0  0
    3.0000   -2.6218    0.0000 C   0  0  0  0  0  0  0  0  0  0  0  0
    2.0000   -2.6306    0.0000 C   0  0  0  0  0  0  0  0  0  0  0  0
    6.0893    1.6566    0.0000 H   0  0  0  0  0  0  0  0  0  0  0  0
    5.9248   -1.1677    0.0000 H   0  0  0  0  0  0  0  0  0  0  0  0
    7.7264   -0.9218    0.0000 H   0  0  0  0  0  0  0  0  0  0  0  0
    6.4270   -1.3120    0.0000 H   0  0  0  0  0  0  0  0  0  0  0  0
    7.2252   -1.3050    0.0000 H   0  0  0  0  0  0  0  0  0  0  0  0
    7.2973    2.4153    0.0000 H   0  0  0  0  0  0  0  0  0  0  0  0
    7.0859    1.7175    0.0000 H   0  0  0  0  0  0  0  0  0  0  0  0
    6.3218    2.7338    0.0000 H   0  0  0  0  0  0  0  0  0  0  0  0
    6.0976    1.9939    0.0000 H   0  0  0  0  0  0  0  0  0  0  0  0
    5.3963    1.7520    0.0000 H   0  0  0  0  0  0  0  0  0  0  0  0
    4.5981    1.7634    0.0000 H   0  0  0  0  0  0  0  0  0  0  0  0
    8.5941    3.7035    0.0000 H   0  0  0  0  0  0  0  0  0  0  0  0
    7.5299    3.5531    0.0000 H   0  0  0  0  0  0  0  0  0  0  0  0
    6.8116    3.2671    0.0000 H   0  0  0  0  0  0  0  0  0  0  0  0
    3.4317   -0.2266    0.0000 H   0  0  0  0  0  0  0  0  0  0  0  0
    3.8316   -0.9174    0.0000 H   0  0  0  0  0  0  0  0  0  0  0  0
    6.1638    1.8750    0.0000 H   0  0  0  0  0  0  0  0  0  0  0  0
    5.3702    2.2477    0.0000 H   0  0  0  0  0  0  0  0  0  0  0  0
    4.9974    1.4540    0.0000 H   0  0  0  0  0  0  0  0  0  0  0  0
    3.8377    1.3349    0.0000 H   0  0  0  0  0  0  0  0  0  0  0  0
    3.4340    0.6462    0.0000 H   0  0  0  0  0  0  0  0  0  0  0  0
    4.3900   -2.3540    0.0000 H   0  0  0  0  0  0  0  0  0  0  0  0
    5.0767   -1.9494    0.0000 H   0  0  0  0  0  0  0  0  0  0  0  0
    4.9580   -2.0484    0.0000 H   0  0  0  0  0  0  0  0  0  0  0  0
    5.8069   -2.2679    0.0000 H   0  0  0  0  0  0  0  0  0  0  0  0
    6.0264   -1.4190    0.0000 H   0  0  0  0  0  0  0  0  0  0  0  0
   10.2921    1.7378    0.0000 H   0  0  0  0  0  0  0  0  0  0  0  0
   10.1268    2.7988    0.0000 H   0  0  0  0  0  0  0  0  0  0  0  0
    9.1811   -2.8149    0.0000 H   0  0  0  0  0  0  0  0  0  0  0  0
   10.0242   -2.5740    0.0000 H   0  0  0  0  0  0  0  0  0  0  0  0
    9.7833   -1.7309    0.0000 H   0  0  0  0  0  0  0  0  0  0  0  0
    1.9945   -2.0107    0.0000 H   0  0  0  0  0  0  0  0  0  0  0  0
    1.3800   -2.6361    0.0000 H   0  0  0  0  0  0  0  0  0  0  0  0
    2.0055   -3.2506    0.0000 H   0  0  0  0  0  0  0  0  0  0  0  0
 10  1  1  6  0  0  0
  1 26  1  0  0  0  0
  2 18  2  0  0  0  0
  3 23  1  0  0  0  0
  3 28  1  0  0  0  0
  4 26  2  0  0  0  0
  5 28  2  0  0  0  0
  6  7  1  0  0  0  0
  6  9  1  0  0  0  0
  6 15  1  0  0  0  0
  6 20  1  6  0  0  0
  7  8  1  0  0  0  0
  7 14  1  0  0  0  0
  7 30  1  1  0  0  0
  8 10  1  0  0  0  0
  8 13  1  6  0  0  0
  8 18  1  0  0  0  0
  9 11  1  0  0  0  0
  9 12  1  0  0  0  0
  9 31  1  1  0  0  0
 10 12  1  0  0  0  0
 10 32  1  0  0  0  0
 11 19  1  0  0  0  0
 11 23  1  0  0  0  0
 11 24  1  6  0  0  0
 12 33  1  0  0  0  0
 12 34  1  0  0  0  0
 13 16  1  0  0  0  0
 13 35  1  0  0  0  0
 13 36  1  0  0  0  0
 14 17  1  0  0  0  0
 14 37  1  0  0  0  0
 14 38  1  0  0  0  0
 15 21  1  0  0  0  0
 15 39  1  0  0  0  0
 15 40  1  0  0  0  0
 16 17  1  0  0  0  0
 16 22  1  0  0  0  0
 16 41  1  6  0  0  0
 17 42  1  0  0  0  0
 17 43  1  0  0  0  0
 18 22  1  0  0  0  0
 19 21  1  0  0  0  0
 19 44  1  0  0  0  0
 19 45  1  0  0  0  0
 20 46  1  0  0  0  0
 20 47  1  0  0  0  0
 20 48  1  0  0  0  0
 21 49  1  0  0  0  0
 21 50  1  0  0  0  0
 22 25  2  0  0  0  0
 23 51  1  0  0  0  0
 23 52  1  0  0  0  0
 24 53  1  0  0  0  0
 24 54  1  0  0  0  0
 24 55  1  0  0  0  0
 25 56  1  0  0  0  0
 25 57  1  0  0  0  0
 26 27  1  0  0  0  0
 27 58  1  0  0  0  0
 27 59  1  0  0  0  0
 27 60  1  0  0  0  0
 28 29  1  0  0  0  0
 29 61  1  0  0  0  0
 29 62  1  0  0  0  0
 29 63  1  0  0  0  0
M  END
> <PUBCHEM_COMPOUND_CID>
71578804

> <PUBCHEM_COMPOUND_CANONICALIZED>
1

> <PUBCHEM_CACTVS_COMPLEXITY>
771

> <PUBCHEM_CACTVS_HBOND_ACCEPTOR>
5

> <PUBCHEM_CACTVS_HBOND_DONOR>
0

> <PUBCHEM_CACTVS_ROTATABLE_BOND>
5

> <PUBCHEM_CACTVS_SUBSKEYS>
AAADcfB4OAAAAAAAAAAAAAAAAAAAAYAAAAAwYMAABgAAAADAAAAAGgAAAAAADxSggAICCAAABACIAoDSCAAAAAAgAAAAAAEAAEgAABYAAQACAAAEoAAAAIGI6PyPgAAAAAAAAADAAAYAADAAAQAAAAAAAA==

> <PUBCHEM_IUPAC_OPENEYE_NAME>
[(1R,2R,4S,5S,9R,10S,13R)-2-acetoxy-5,9-dimethyl-14-methylene-15-oxo-5-tetracyclo[11.2.1.01,10.04,9]hexadecanyl]methyl acetate

> <PUBCHEM_IUPAC_CAS_NAME>
acetic acid [(1R,2R,4S,5S,9R,10S,13R)-2-acetyloxy-5,9-dimethyl-14-methylene-15-oxo-5-tetracyclo[11.2.1.01,10.04,9]hexadecanyl]methyl ester

> <PUBCHEM_IUPAC_NAME_MARKUP>
[(1<I>R</I>,2<I>R</I>,4<I>S</I>,5<I>S</I>,9<I>R</I>,10<I>S</I>,13<I>R</I>)-2-acetyloxy-5,9-dimethyl-14-methylidene-15-oxo-5-tetracyclo[11.2.1.0<SUP>1,10</SUP>.0<SUP>4,9</SUP>]hexadecanyl]methyl acetate

> <PUBCHEM_IUPAC_NAME>
[(1R,2R,4S,5S,9R,10S,13R)-2-acetyloxy-5,9-dimethyl-14-methylidene-15-oxo-5-tetracyclo[11.2.1.01,10.04,9]hexadecanyl]methyl acetate

> <PUBCHEM_IUPAC_SYSTEMATIC_NAME>
[(1R,2R,4S,5S,9R,10S,13R)-2-acetyloxy-5,9-dimethyl-14-methylidene-15-oxidanylidene-5-tetracyclo[11.2.1.01,10.04,9]hexadecanyl]methyl ethanoate

> <PUBCHEM_IUPAC_TRADITIONAL_NAME>
acetic acid [(1R,2R,4S,5S,9R,10S,13R)-2-acetoxy-15-keto-5,9-dimethyl-14-methylene-5-tetracyclo[11.2.1.01,10.04,9]hexadecanyl]methyl ester

> <PUBCHEM_IUPAC_INCHI>
InChI=1S/C24H34O5/c1-14-17-7-8-18-23(5)10-6-9-22(4,13-28-15(2)25)19(23)11-20(29-16(3)26)24(18,12-17)21(14)27/h17-20H,1,6-13H2,2-5H3/t17-,18+,19-,20-,22-,23+,24-/m1/s1

> <PUBCHEM_IUPAC_INCHIKEY>
VVIUOIJWOANYOG-VDJOULASSA-N

> <PUBCHEM_XLOGP3_AA>
4.5

> <PUBCHEM_EXACT_MASS>
402.24062418

> <PUBCHEM_MOLECULAR_FORMULA>
C24H34O5

> <PUBCHEM_MOLECULAR_WEIGHT>
402.5

> <PUBCHEM_OPENEYE_CAN_SMILES>
CC(=O)OCC1(CCCC2(C1CC(C34C2CCC(C3)C(=C)C4=O)OC(=O)C)C)C

> <PUBCHEM_OPENEYE_ISO_SMILES>
CC(=O)OC[C@]1(CCC[C@@]2([C@@H]1C[C@H]([C@]34[C@H]2CC[C@H](C3)C(=C)C4=O)OC(=O)C)C)C

> <PUBCHEM_CACTVS_TPSA>
69.7

> <PUBCHEM_MONOISOTOPIC_WEIGHT>
402.24062418

> <PUBCHEM_TOTAL_CHARGE>
0

> <PUBCHEM_HEAVY_ATOM_COUNT>
29

> <PUBCHEM_ATOM_DEF_STEREO_COUNT>
7

> <PUBCHEM_ATOM_UDEF_STEREO_COUNT>
0

> <PUBCHEM_BOND_DEF_STEREO_COUNT>
0

> <PUBCHEM_BOND_UDEF_STEREO_COUNT>
0

> <PUBCHEM_ISOTOPIC_ATOM_COUNT>
0

> <PUBCHEM_COMPONENT_COUNT>
1

> <PUBCHEM_CACTVS_TAUTO_COUNT>
-1

> <PUBCHEM_COORDINATE_TYPE>
1
5
255

> <PUBCHEM_BONDANNOTATIONS>
10  1  6
11  24  6
16  41  6
6  20  6
7  30  5
8  13  6
9  31  5

$$$$
