71578722
  -OEChem-05162309492D

 57 60  0     1  0  0  0  0  0999 V2000
    4.5295    1.7299    0.0000 O   0  0  0  0  0  0  0  0  0  0  0  0
    2.3052   -2.5348    0.0000 O   0  0  0  0  0  0  0  0  0  0  0  0
    3.8128   -3.3875    0.0000 O   0  0  0  0  0  0  0  0  0  0  0  0
    9.3435    0.6584    0.0000 O   0  0  0  0  0  0  0  0  0  0  0  0
    5.0318    3.3875    0.0000 O   0  0  0  0  0  0  0  0  0  0  0  0
    4.7330   -0.0595    0.0000 C   0  0  1  0  0  0  0  0  0  0  0  0
    5.6405    0.4518    0.0000 C   0  0  1  0  0  0  0  0  0  0  0  0
    6.5090   -0.0438    0.0000 C   0  0  1  0  0  0  0  0  0  0  0  0
    4.7302   -1.1012    0.0000 C   0  0  2  0  0  0  0  0  0  0  0  0
    6.5302   -1.0852    0.0000 C   0  0  0  0  0  0  0  0  0  0  0  0
    6.4845    1.1375    0.0000 C   0  0  0  0  0  0  0  0  0  0  0  0
    5.4865    1.4399    0.0000 C   0  0  2  0  0  0  0  0  0  0  0  0
    5.6349   -1.6175    0.0000 C   0  0  0  0  0  0  0  0  0  0  0  0
    3.7975   -1.6556    0.0000 C   0  0  1  0  0  0  0  0  0  0  0  0
    7.1606    2.1066    0.0000 C   0  0  1  0  0  0  0  0  0  0  0  0
    3.8034    0.4999    0.0000 C   0  0  0  0  0  0  0  0  0  0  0  0
    6.1630    2.1763    0.0000 C   0  0  0  0  0  0  0  0  0  0  0  0
    7.4380    0.3261    0.0000 C   0  0  0  0  0  0  0  0  0  0  0  0
    4.3936    0.8811    0.0000 C   0  0  0  0  0  0  0  0  0  0  0  0
    2.8552   -1.1177    0.0000 C   0  0  0  0  0  0  0  0  0  0  0  0
    2.8582   -0.0327    0.0000 C   0  0  0  0  0  0  0  0  0  0  0  0
    7.7280    1.2832    0.0000 C   0  0  0  0  0  0  0  0  0  0  0  0
    4.3052   -2.5171    0.0000 C   0  0  0  0  0  0  0  0  0  0  0  0
    3.3052   -2.5260    0.0000 C   0  0  0  0  0  0  0  0  0  0  0  0
    8.7161    1.4372    0.0000 C   0  0  0  0  0  0  0  0  0  0  0  0
    4.3021    2.7037    0.0000 C   0  0  0  0  0  0  0  0  0  0  0  0
    3.3451    2.9937    0.0000 C   0  0  0  0  0  0  0  0  0  0  0  0
    4.9023    0.8732    0.0000 H   0  0  0  0  0  0  0  0  0  0  0  0
    4.7377   -1.9511    0.0000 H   0  0  0  0  0  0  0  0  0  0  0  0
    6.7512   -1.6646    0.0000 H   0  0  0  0  0  0  0  0  0  0  0  0
    7.1388   -0.9667    0.0000 H   0  0  0  0  0  0  0  0  0  0  0  0
    6.1103    1.6318    0.0000 H   0  0  0  0  0  0  0  0  0  0  0  0
    5.8988    0.9341    0.0000 H   0  0  0  0  0  0  0  0  0  0  0  0
    5.3231    2.0380    0.0000 H   0  0  0  0  0  0  0  0  0  0  0  0
    5.2399   -2.0954    0.0000 H   0  0  0  0  0  0  0  0  0  0  0  0
    6.0382   -2.0884    0.0000 H   0  0  0  0  0  0  0  0  0  0  0  0
    7.4071    2.9201    0.0000 H   0  0  0  0  0  0  0  0  0  0  0  0
    4.2093    0.9686    0.0000 H   0  0  0  0  0  0  0  0  0  0  0  0
    3.4111    0.9800    0.0000 H   0  0  0  0  0  0  0  0  0  0  0  0
    6.3428    2.7697    0.0000 H   0  0  0  0  0  0  0  0  0  0  0  0
    5.6246    2.4837    0.0000 H   0  0  0  0  0  0  0  0  0  0  0  0
    7.8946   -0.0933    0.0000 H   0  0  0  0  0  0  0  0  0  0  0  0
    4.9768    1.0916    0.0000 H   0  0  0  0  0  0  0  0  0  0  0  0
    4.1831    1.4643    0.0000 H   0  0  0  0  0  0  0  0  0  0  0  0
    3.8104    0.6706    0.0000 H   0  0  0  0  0  0  0  0  0  0  0  0
    2.2446   -1.0100    0.0000 H   0  0  0  0  0  0  0  0  0  0  0  0
    2.6446   -1.7009    0.0000 H   0  0  0  0  0  0  0  0  0  0  0  0
    2.6507    0.5515    0.0000 H   0  0  0  0  0  0  0  0  0  0  0  0
    2.2470   -0.1372    0.0000 H   0  0  0  0  0  0  0  0  0  0  0  0
    3.7710   -2.8319    0.0000 H   0  0  0  0  0  0  0  0  0  0  0  0
    4.6199   -3.0513    0.0000 H   0  0  0  0  0  0  0  0  0  0  0  0
    4.8393   -2.2024    0.0000 H   0  0  0  0  0  0  0  0  0  0  0  0
    8.9397    2.0154    0.0000 H   0  0  0  0  0  0  0  0  0  0  0  0
    2.0000   -3.0744    0.0000 H   0  0  0  0  0  0  0  0  0  0  0  0
    3.5249    3.5870    0.0000 H   0  0  0  0  0  0  0  0  0  0  0  0
    2.7517    3.1735    0.0000 H   0  0  0  0  0  0  0  0  0  0  0  0
    3.1653    2.4003    0.0000 H   0  0  0  0  0  0  0  0  0  0  0  0
 12  1  1  1  0  0  0
  1 26  1  0  0  0  0
  2 24  1  0  0  0  0
  2 54  1  0  0  0  0
  3 24  2  0  0  0  0
  4 25  2  0  0  0  0
  5 26  2  0  0  0  0
  6  7  1  0  0  0  0
  6  9  1  0  0  0  0
  6 16  1  0  0  0  0
  6 19  1  6  0  0  0
  7  8  1  0  0  0  0
  7 12  1  0  0  0  0
  7 28  1  1  0  0  0
  8 10  1  6  0  0  0
  8 11  1  0  0  0  0
  8 18  1  0  0  0  0
  9 13  1  0  0  0  0
  9 14  1  0  0  0  0
  9 29  1  1  0  0  0
 10 13  1  0  0  0  0
 10 30  1  0  0  0  0
 10 31  1  0  0  0  0
 11 15  1  0  0  0  0
 11 32  1  0  0  0  0
 11 33  1  0  0  0  0
 12 17  1  0  0  0  0
 12 34  1  0  0  0  0
 13 35  1  0  0  0  0
 13 36  1  0  0  0  0
 14 20  1  0  0  0  0
 14 23  1  6  0  0  0
 14 24  1  0  0  0  0
 15 17  1  0  0  0  0
 15 22  1  0  0  0  0
 15 37  1  6  0  0  0
 16 21  1  0  0  0  0
 16 38  1  0  0  0  0
 16 39  1  0  0  0  0
 17 40  1  0  0  0  0
 17 41  1  0  0  0  0
 18 22  2  0  0  0  0
 18 42  1  0  0  0  0
 19 43  1  0  0  0  0
 19 44  1  0  0  0  0
 19 45  1  0  0  0  0
 20 21  1  0  0  0  0
 20 46  1  0  0  0  0
 20 47  1  0  0  0  0
 21 48  1  0  0  0  0
 21 49  1  0  0  0  0
 22 25  1  0  0  0  0
 23 50  1  0  0  0  0
 23 51  1  0  0  0  0
 23 52  1  0  0  0  0
 25 53  1  0  0  0  0
 26 27  1  0  0  0  0
 27 55  1  0  0  0  0
 27 56  1  0  0  0  0
 27 57  1  0  0  0  0
M  END
> <PUBCHEM_COMPOUND_CID>
71578722

> <PUBCHEM_COMPOUND_CANONICALIZED>
1

> <PUBCHEM_CACTVS_COMPLEXITY>
726

> <PUBCHEM_CACTVS_HBOND_ACCEPTOR>
5

> <PUBCHEM_CACTVS_HBOND_DONOR>
1

> <PUBCHEM_CACTVS_ROTATABLE_BOND>
4

> <PUBCHEM_CACTVS_SUBSKEYS>
AAADceB4OAAAAAAAAAAAAAAAAAAAAQAAAAAwYMAABAAAAADAAAAAGgAACAAADxSggAICCAAABgCIAijSiAAAAAAgAAAACAEAAEgAABIAAQACQAAEgAAIAYOIzPDPgAAAAAAAAACAAAYAADAAAAAAAAAAAA==

> <PUBCHEM_IUPAC_OPENEYE_NAME>
(1S,4S,5S,9R,10S,11S,13S)-11-acetoxy-14-formyl-5,9-dimethyl-tetracyclo[11.2.1.01,10.04,9]hexadec-14-ene-5-carboxylic acid

> <PUBCHEM_IUPAC_CAS_NAME>
(1S,4S,5S,9R,10S,11S,13S)-11-acetyloxy-14-formyl-5,9-dimethyl-5-tetracyclo[11.2.1.01,10.04,9]hexadec-14-enecarboxylic acid

> <PUBCHEM_IUPAC_NAME_MARKUP>
(1<I>S</I>,4<I>S</I>,5<I>S</I>,9<I>R</I>,10<I>S</I>,11<I>S</I>,13<I>S</I>)-11-acetyloxy-14-formyl-5,9-dimethyltetracyclo[11.2.1.0<SUP>1,10</SUP>.0<SUP>4,9</SUP>]hexadec-14-ene-5-carboxylic acid

> <PUBCHEM_IUPAC_NAME>
(1S,4S,5S,9R,10S,11S,13S)-11-acetyloxy-14-formyl-5,9-dimethyltetracyclo[11.2.1.01,10.04,9]hexadec-14-ene-5-carboxylic acid

> <PUBCHEM_IUPAC_SYSTEMATIC_NAME>
(1S,4S,5S,9R,10S,11S,13S)-11-acetyloxy-14-methanoyl-5,9-dimethyl-tetracyclo[11.2.1.01,10.04,9]hexadec-14-ene-5-carboxylic acid

> <PUBCHEM_IUPAC_TRADITIONAL_NAME>
(1S,4S,5S,9R,10S,11S,13S)-11-acetoxy-14-formyl-5,9-dimethyl-tetracyclo[11.2.1.01,10.04,9]hexadec-14-ene-5-carboxylic acid

> <PUBCHEM_IUPAC_INCHI>
InChI=1S/C22H30O5/c1-13(24)27-16-9-14-10-22(11-15(14)12-23)8-5-17-20(2,18(16)22)6-4-7-21(17,3)19(25)26/h11-12,14,16-18H,4-10H2,1-3H3,(H,25,26)/t14-,16+,17+,18+,20-,21+,22+/m1/s1

> <PUBCHEM_IUPAC_INCHIKEY>
UKKLQQNAXRBSIP-JKYGVMPDSA-N

> <PUBCHEM_XLOGP3_AA>
3.9

> <PUBCHEM_EXACT_MASS>
374.20932405

> <PUBCHEM_MOLECULAR_FORMULA>
C22H30O5

> <PUBCHEM_MOLECULAR_WEIGHT>
374.5

> <PUBCHEM_OPENEYE_CAN_SMILES>
CC(=O)OC1CC2CC3(C1C4(CCCC(C4CC3)(C)C(=O)O)C)C=C2C=O

> <PUBCHEM_OPENEYE_ISO_SMILES>
CC(=O)O[C@H]1C[C@@H]2C[C@]3([C@@H]1[C@@]4(CCC[C@]([C@H]4CC3)(C)C(=O)O)C)C=C2C=O

> <PUBCHEM_CACTVS_TPSA>
80.7

> <PUBCHEM_MONOISOTOPIC_WEIGHT>
374.20932405

> <PUBCHEM_TOTAL_CHARGE>
0

> <PUBCHEM_HEAVY_ATOM_COUNT>
27

> <PUBCHEM_ATOM_DEF_STEREO_COUNT>
7

> <PUBCHEM_ATOM_UDEF_STEREO_COUNT>
0

> <PUBCHEM_BOND_DEF_STEREO_COUNT>
0

> <PUBCHEM_BOND_UDEF_STEREO_COUNT>
0

> <PUBCHEM_ISOTOPIC_ATOM_COUNT>
0

> <PUBCHEM_COMPONENT_COUNT>
1

> <PUBCHEM_CACTVS_TAUTO_COUNT>
-1

> <PUBCHEM_COORDINATE_TYPE>
1
5
255

> <PUBCHEM_BONDANNOTATIONS>
12  1  5
14  23  6
15  37  6
6  19  6
7  28  5
8  10  6
9  29  5

$$$$
