71578806
  -OEChem-05162309492D

 62 65  0     1  0  0  0  0  0999 V2000
    9.8049    1.6104    0.0000 O   0  0  0  0  0  0  0  0  0  0  0  0
    5.7165    2.5133    0.0000 O   0  0  0  0  0  0  0  0  0  0  0  0
    3.4923   -1.7514    0.0000 O   0  0  0  0  0  0  0  0  0  0  0  0
    3.5076   -3.4834    0.0000 O   0  0  0  0  0  0  0  0  0  0  0  0
    7.6960    0.7396    0.0000 C   0  0  1  0  0  0  0  0  0  0  0  0
    6.8275    1.2353    0.0000 C   0  0  2  0  0  0  0  0  0  0  0  0
    5.9201    0.7239    0.0000 C   0  0  1  0  0  0  0  0  0  0  0  0
    5.9172   -0.3177    0.0000 C   0  0  2  0  0  0  0  0  0  0  0  0
    7.6716    1.9209    0.0000 C   0  0  0  0  0  0  0  0  0  0  0  0
    8.3476    2.8900    0.0000 C   0  0  2  0  0  0  0  0  0  0  0  0
    8.6251    1.1096    0.0000 C   0  0  0  0  0  0  0  0  0  0  0  0
    7.7173   -0.3018    0.0000 C   0  0  0  0  0  0  0  0  0  0  0  0
    8.9151    2.0666    0.0000 C   0  0  3  0  0  0  0  0  0  0  0  0
    6.6736    2.2233    0.0000 C   0  0  2  0  0  0  0  0  0  0  0  0
    6.8219   -0.8341    0.0000 C   0  0  0  0  0  0  0  0  0  0  0  0
    4.9846   -0.8721    0.0000 C   0  0  2  0  0  0  0  0  0  0  0  0
    7.3501    2.9598    0.0000 C   0  0  0  0  0  0  0  0  0  0  0  0
    4.9904    1.2833    0.0000 C   0  0  0  0  0  0  0  0  0  0  0  0
    5.5806    1.6645    0.0000 C   0  0  0  0  0  0  0  0  0  0  0  0
    4.0422   -0.3343    0.0000 C   0  0  0  0  0  0  0  0  0  0  0  0
    4.0452    0.7507    0.0000 C   0  0  0  0  0  0  0  0  0  0  0  0
    9.6239    2.7719    0.0000 C   0  0  0  0  0  0  0  0  0  0  0  0
    4.4922   -1.7425    0.0000 C   0  0  0  0  0  0  0  0  0  0  0  0
    5.4922   -1.7337    0.0000 C   0  0  0  0  0  0  0  0  0  0  0  0
    3.0000   -2.6218    0.0000 C   0  0  0  0  0  0  0  0  0  0  0  0
    2.0000   -2.6306    0.0000 C   0  0  0  0  0  0  0  0  0  0  0  0
    6.0893    1.6566    0.0000 H   0  0  0  0  0  0  0  0  0  0  0  0
    5.9248   -1.1677    0.0000 H   0  0  0  0  0  0  0  0  0  0  0  0
    7.2973    2.4153    0.0000 H   0  0  0  0  0  0  0  0  0  0  0  0
    7.0859    1.7175    0.0000 H   0  0  0  0  0  0  0  0  0  0  0  0
    8.5941    3.7035    0.0000 H   0  0  0  0  0  0  0  0  0  0  0  0
    8.7206    0.4970    0.0000 H   0  0  0  0  0  0  0  0  0  0  0  0
    9.2436    1.0663    0.0000 H   0  0  0  0  0  0  0  0  0  0  0  0
    7.9382   -0.8811    0.0000 H   0  0  0  0  0  0  0  0  0  0  0  0
    8.3259   -0.1833    0.0000 H   0  0  0  0  0  0  0  0  0  0  0  0
    6.5101    2.8214    0.0000 H   0  0  0  0  0  0  0  0  0  0  0  0
    6.4270   -1.3120    0.0000 H   0  0  0  0  0  0  0  0  0  0  0  0
    7.2252   -1.3050    0.0000 H   0  0  0  0  0  0  0  0  0  0  0  0
    7.5299    3.5531    0.0000 H   0  0  0  0  0  0  0  0  0  0  0  0
    6.8116    3.2671    0.0000 H   0  0  0  0  0  0  0  0  0  0  0  0
    5.3963    1.7520    0.0000 H   0  0  0  0  0  0  0  0  0  0  0  0
    4.5981    1.7634    0.0000 H   0  0  0  0  0  0  0  0  0  0  0  0
    6.1638    1.8750    0.0000 H   0  0  0  0  0  0  0  0  0  0  0  0
    5.3702    2.2477    0.0000 H   0  0  0  0  0  0  0  0  0  0  0  0
    4.9974    1.4540    0.0000 H   0  0  0  0  0  0  0  0  0  0  0  0
    3.4317   -0.2266    0.0000 H   0  0  0  0  0  0  0  0  0  0  0  0
    3.8316   -0.9174    0.0000 H   0  0  0  0  0  0  0  0  0  0  0  0
    3.8377    1.3349    0.0000 H   0  0  0  0  0  0  0  0  0  0  0  0
    3.4340    0.6462    0.0000 H   0  0  0  0  0  0  0  0  0  0  0  0
   10.0613    2.3324    0.0000 H   0  0  0  0  0  0  0  0  0  0  0  0
   10.0634    3.2092    0.0000 H   0  0  0  0  0  0  0  0  0  0  0  0
    9.1866    3.2114    0.0000 H   0  0  0  0  0  0  0  0  0  0  0  0
    4.3900   -2.3540    0.0000 H   0  0  0  0  0  0  0  0  0  0  0  0
    5.0767   -1.9494    0.0000 H   0  0  0  0  0  0  0  0  0  0  0  0
    4.9580   -2.0484    0.0000 H   0  0  0  0  0  0  0  0  0  0  0  0
    5.8069   -2.2679    0.0000 H   0  0  0  0  0  0  0  0  0  0  0  0
    6.0264   -1.4190    0.0000 H   0  0  0  0  0  0  0  0  0  0  0  0
   10.3258    1.9468    0.0000 H   0  0  0  0  0  0  0  0  0  0  0  0
    5.5756    3.1171    0.0000 H   0  0  0  0  0  0  0  0  0  0  0  0
    1.9945   -2.0107    0.0000 H   0  0  0  0  0  0  0  0  0  0  0  0
    1.3800   -2.6361    0.0000 H   0  0  0  0  0  0  0  0  0  0  0  0
    2.0055   -3.2506    0.0000 H   0  0  0  0  0  0  0  0  0  0  0  0
  1 13  1  0  0  0  0
  1 58  1  0  0  0  0
 14  2  1  1  0  0  0
  2 59  1  0  0  0  0
  3 23  1  0  0  0  0
  3 25  1  0  0  0  0
  4 25  2  0  0  0  0
  5  6  1  0  0  0  0
  5  9  1  0  0  0  0
  5 11  1  0  0  0  0
  5 12  1  6  0  0  0
  6  7  1  0  0  0  0
  6 14  1  0  0  0  0
  6 27  1  1  0  0  0
  7  8  1  0  0  0  0
  7 18  1  0  0  0  0
  7 19  1  6  0  0  0
  8 15  1  0  0  0  0
  8 16  1  0  0  0  0
  8 28  1  1  0  0  0
  9 10  1  0  0  0  0
  9 29  1  0  0  0  0
  9 30  1  0  0  0  0
 10 13  1  0  0  0  0
 10 17  1  0  0  0  0
 10 31  1  6  0  0  0
 11 13  1  0  0  0  0
 11 32  1  0  0  0  0
 11 33  1  0  0  0  0
 12 15  1  0  0  0  0
 12 34  1  0  0  0  0
 12 35  1  0  0  0  0
 13 22  1  0  0  0  0
 14 17  1  0  0  0  0
 14 36  1  0  0  0  0
 15 37  1  0  0  0  0
 15 38  1  0  0  0  0
 16 20  1  0  0  0  0
 16 23  1  0  0  0  0
 16 24  1  6  0  0  0
 17 39  1  0  0  0  0
 17 40  1  0  0  0  0
 18 21  1  0  0  0  0
 18 41  1  0  0  0  0
 18 42  1  0  0  0  0
 19 43  1  0  0  0  0
 19 44  1  0  0  0  0
 19 45  1  0  0  0  0
 20 21  1  0  0  0  0
 20 46  1  0  0  0  0
 20 47  1  0  0  0  0
 21 48  1  0  0  0  0
 21 49  1  0  0  0  0
 22 50  1  0  0  0  0
 22 51  1  0  0  0  0
 22 52  1  0  0  0  0
 23 53  1  0  0  0  0
 23 54  1  0  0  0  0
 24 55  1  0  0  0  0
 24 56  1  0  0  0  0
 24 57  1  0  0  0  0
 25 26  1  0  0  0  0
 26 60  1  0  0  0  0
 26 61  1  0  0  0  0
 26 62  1  0  0  0  0
M  END
> <PUBCHEM_COMPOUND_CID>
71578806

> <PUBCHEM_COMPOUND_CANONICALIZED>
1

> <PUBCHEM_CACTVS_COMPLEXITY>
605

> <PUBCHEM_CACTVS_HBOND_ACCEPTOR>
4

> <PUBCHEM_CACTVS_HBOND_DONOR>
2

> <PUBCHEM_CACTVS_ROTATABLE_BOND>
3

> <PUBCHEM_CACTVS_SUBSKEYS>
AAADcfB4OAAAAAAAAAAAAAAAAAAAAYAAAAAwYMAABgAAAADAAAAAGgAACAAAD1SggAICCAAABgAIAACQCAAAAAAAAAAAAAAAAAAAEAIAAAACQAAEAAAAAAHA4PQPgAAAAAAAAACAAAYAADAAAYAADAAAAA==

> <PUBCHEM_IUPAC_OPENEYE_NAME>
[(1S,4S,5S,9R,10R,11S,13S)-11,14-dihydroxy-5,9,14-trimethyl-5-tetracyclo[11.2.1.01,10.04,9]hexadecanyl]methyl acetate

> <PUBCHEM_IUPAC_CAS_NAME>
acetic acid [(1S,4S,5S,9R,10R,11S,13S)-11,14-dihydroxy-5,9,14-trimethyl-5-tetracyclo[11.2.1.01,10.04,9]hexadecanyl]methyl ester

> <PUBCHEM_IUPAC_NAME_MARKUP>
[(1<I>S</I>,4<I>S</I>,5<I>S</I>,9<I>R</I>,10<I>R</I>,11<I>S</I>,13<I>S</I>)-11,14-dihydroxy-5,9,14-trimethyl-5-tetracyclo[11.2.1.0<SUP>1,10</SUP>.0<SUP>4,9</SUP>]hexadecanyl]methyl acetate

> <PUBCHEM_IUPAC_NAME>
[(1S,4S,5S,9R,10R,11S,13S)-11,14-dihydroxy-5,9,14-trimethyl-5-tetracyclo[11.2.1.01,10.04,9]hexadecanyl]methyl acetate

> <PUBCHEM_IUPAC_SYSTEMATIC_NAME>
[(1S,4S,5S,9R,10R,11S,13S)-5,9,14-trimethyl-11,14-bis(oxidanyl)-5-tetracyclo[11.2.1.01,10.04,9]hexadecanyl]methyl ethanoate

> <PUBCHEM_IUPAC_TRADITIONAL_NAME>
acetic acid [(1S,4S,5S,9R,10R,11S,13S)-11,14-dihydroxy-5,9,14-trimethyl-5-tetracyclo[11.2.1.01,10.04,9]hexadecanyl]methyl ester

> <PUBCHEM_IUPAC_INCHI>
InChI=1S/C22H36O4/c1-14(23)26-13-19(2)7-5-8-20(3)17(19)6-9-22-11-15(21(4,25)12-22)10-16(24)18(20)22/h15-18,24-25H,5-13H2,1-4H3/t15-,16+,17-,18+,19-,20-,21?,22+/m1/s1

> <PUBCHEM_IUPAC_INCHIKEY>
OSXQLEITCURIQP-DKNJKJPPSA-N

> <PUBCHEM_XLOGP3_AA>
3.9

> <PUBCHEM_EXACT_MASS>
364.26135963

> <PUBCHEM_MOLECULAR_FORMULA>
C22H36O4

> <PUBCHEM_MOLECULAR_WEIGHT>
364.5

> <PUBCHEM_OPENEYE_CAN_SMILES>
CC(=O)OCC1(CCCC2(C1CCC34C2C(CC(C3)C(C4)(C)O)O)C)C

> <PUBCHEM_OPENEYE_ISO_SMILES>
CC(=O)OC[C@]1(CCC[C@@]2([C@@H]1CC[C@]34[C@H]2[C@H](C[C@H](C3)C(C4)(C)O)O)C)C

> <PUBCHEM_CACTVS_TPSA>
66.8

> <PUBCHEM_MONOISOTOPIC_WEIGHT>
364.26135963

> <PUBCHEM_TOTAL_CHARGE>
0

> <PUBCHEM_HEAVY_ATOM_COUNT>
26

> <PUBCHEM_ATOM_DEF_STEREO_COUNT>
7

> <PUBCHEM_ATOM_UDEF_STEREO_COUNT>
1

> <PUBCHEM_BOND_DEF_STEREO_COUNT>
0

> <PUBCHEM_BOND_UDEF_STEREO_COUNT>
0

> <PUBCHEM_ISOTOPIC_ATOM_COUNT>
0

> <PUBCHEM_COMPONENT_COUNT>
1

> <PUBCHEM_CACTVS_TAUTO_COUNT>
-1

> <PUBCHEM_COORDINATE_TYPE>
1
5
255

> <PUBCHEM_BONDANNOTATIONS>
13  1  3
10  31  6
16  24  6
14  2  5
5  12  6
6  27  5
7  19  6
8  28  5

$$$$
