54586934
  -OEChem-05162308162D

 94 94  0     1  0  0  0  0  0999 V2000
   11.5263    3.1900    0.0000 O   0  0  0  0  0  0  0  0  0  0  0  0
   10.6603    1.6900    0.0000 O   0  0  0  0  0  0  0  0  0  0  0  0
   12.3923    4.6900    0.0000 O   0  0  0  0  0  0  0  0  0  0  0  0
    9.7942    0.1900    0.0000 O   0  0  0  0  0  0  0  0  0  0  0  0
   13.2583    6.1900    0.0000 O   0  0  0  0  0  0  0  0  0  0  0  0
   14.1244    7.6900    0.0000 O   0  0  0  0  0  0  0  0  0  0  0  0
   12.3923    9.6900    0.0000 O   0  0  0  0  0  0  0  0  0  0  0  0
   15.8564    7.6900    0.0000 O   0  0  0  0  0  0  0  0  0  0  0  0
   10.6603    3.6900    0.0000 C   0  0  1  0  0  0  0  0  0  0  0  0
    9.7942    3.1900    0.0000 C   0  0  0  0  0  0  0  0  0  0  0  0
    9.7942    2.1900    0.0000 C   0  0  2  0  0  0  0  0  0  0  0  0
   10.6603    4.6900    0.0000 C   0  0  0  0  0  0  0  0  0  0  0  0
   11.5263    5.1900    0.0000 C   0  0  1  0  0  0  0  0  0  0  0  0
    8.9282    1.6900    0.0000 C   0  0  0  0  0  0  0  0  0  0  0  0
    8.9282    0.6900    0.0000 C   0  0  1  0  0  0  0  0  0  0  0  0
   11.5263    6.1900    0.0000 C   0  0  0  0  0  0  0  0  0  0  0  0
   12.3923    6.6900    0.0000 C   0  0  1  0  0  0  0  0  0  0  0  0
    8.0622    0.1900    0.0000 C   0  0  0  0  0  0  0  0  0  0  0  0
    8.0622   -0.8100    0.0000 C   0  0  0  0  0  0  0  0  0  0  0  0
   12.3923    7.6900    0.0000 C   0  0  0  0  0  0  0  0  0  0  0  0
    7.1962   -1.3100    0.0000 C   0  0  0  0  0  0  0  0  0  0  0  0
   13.2583    8.1900    0.0000 C   0  0  1  0  0  0  0  0  0  0  0  0
    7.1962   -2.3100    0.0000 C   0  0  0  0  0  0  0  0  0  0  0  0
    6.3301   -2.8100    0.0000 C   0  0  0  0  0  0  0  0  0  0  0  0
    6.3301   -3.8100    0.0000 C   0  0  0  0  0  0  0  0  0  0  0  0
    5.4641   -4.3100    0.0000 C   0  0  0  0  0  0  0  0  0  0  0  0
    5.4641   -5.3100    0.0000 C   0  0  0  0  0  0  0  0  0  0  0  0
   13.2583    9.1900    0.0000 C   0  0  2  0  0  0  0  0  0  0  0  0
    4.5981   -5.8100    0.0000 C   0  0  0  0  0  0  0  0  0  0  0  0
    4.5981   -6.8100    0.0000 C   0  0  0  0  0  0  0  0  0  0  0  0
    3.7320   -7.3100    0.0000 C   0  0  0  0  0  0  0  0  0  0  0  0
    3.7320   -8.3100    0.0000 C   0  0  0  0  0  0  0  0  0  0  0  0
   14.1244    9.6900    0.0000 C   0  0  0  0  0  0  0  0  0  0  0  0
    2.8660   -8.8100    0.0000 C   0  0  0  0  0  0  0  0  0  0  0  0
   14.9904    8.1900    0.0000 C   0  0  0  0  0  0  0  0  0  0  0  0
   14.9904    9.1900    0.0000 C   0  0  0  0  0  0  0  0  0  0  0  0
    2.8660   -9.8100    0.0000 C   0  0  0  0  0  0  0  0  0  0  0  0
    2.0000  -10.3100    0.0000 C   0  0  0  0  0  0  0  0  0  0  0  0
   11.1972    4.0000    0.0000 H   0  0  0  0  0  0  0  0  0  0  0  0
    9.5822    3.7726    0.0000 H   0  0  0  0  0  0  0  0  0  0  0  0
    9.1836    3.0823    0.0000 H   0  0  0  0  0  0  0  0  0  0  0  0
    9.7942    1.5700    0.0000 H   0  0  0  0  0  0  0  0  0  0  0  0
   10.4482    5.2726    0.0000 H   0  0  0  0  0  0  0  0  0  0  0  0
   10.0497    4.5823    0.0000 H   0  0  0  0  0  0  0  0  0  0  0  0
   12.0632    5.5000    0.0000 H   0  0  0  0  0  0  0  0  0  0  0  0
    8.7162    2.2726    0.0000 H   0  0  0  0  0  0  0  0  0  0  0  0
    8.3176    1.5823    0.0000 H   0  0  0  0  0  0  0  0  0  0  0  0
    9.4651    1.0000    0.0000 H   0  0  0  0  0  0  0  0  0  0  0  0
   11.3142    6.7726    0.0000 H   0  0  0  0  0  0  0  0  0  0  0  0
   10.9157    6.0823    0.0000 H   0  0  0  0  0  0  0  0  0  0  0  0
   12.3923    6.0700    0.0000 H   0  0  0  0  0  0  0  0  0  0  0  0
    7.8501    0.7726    0.0000 H   0  0  0  0  0  0  0  0  0  0  0  0
    7.4516    0.0823    0.0000 H   0  0  0  0  0  0  0  0  0  0  0  0
    8.2742   -1.3926    0.0000 H   0  0  0  0  0  0  0  0  0  0  0  0
    8.6728   -0.7023    0.0000 H   0  0  0  0  0  0  0  0  0  0  0  0
   12.1803    8.2726    0.0000 H   0  0  0  0  0  0  0  0  0  0  0  0
   11.7817    7.5823    0.0000 H   0  0  0  0  0  0  0  0  0  0  0  0
    6.9841   -0.7274    0.0000 H   0  0  0  0  0  0  0  0  0  0  0  0
    6.5856   -1.4177    0.0000 H   0  0  0  0  0  0  0  0  0  0  0  0
   13.2583    7.5700    0.0000 H   0  0  0  0  0  0  0  0  0  0  0  0
    7.4082   -2.8926    0.0000 H   0  0  0  0  0  0  0  0  0  0  0  0
    7.8067   -2.2023    0.0000 H   0  0  0  0  0  0  0  0  0  0  0  0
    6.1181   -2.2274    0.0000 H   0  0  0  0  0  0  0  0  0  0  0  0
    5.7196   -2.9177    0.0000 H   0  0  0  0  0  0  0  0  0  0  0  0
    6.5422   -4.3926    0.0000 H   0  0  0  0  0  0  0  0  0  0  0  0
    6.9407   -3.7023    0.0000 H   0  0  0  0  0  0  0  0  0  0  0  0
    5.2520   -3.7274    0.0000 H   0  0  0  0  0  0  0  0  0  0  0  0
    4.8535   -4.4177    0.0000 H   0  0  0  0  0  0  0  0  0  0  0  0
    5.6762   -5.8926    0.0000 H   0  0  0  0  0  0  0  0  0  0  0  0
    6.0747   -5.2023    0.0000 H   0  0  0  0  0  0  0  0  0  0  0  0
   13.2583    9.8100    0.0000 H   0  0  0  0  0  0  0  0  0  0  0  0
    4.3860   -5.2274    0.0000 H   0  0  0  0  0  0  0  0  0  0  0  0
    3.9875   -5.9177    0.0000 H   0  0  0  0  0  0  0  0  0  0  0  0
    4.8101   -7.3926    0.0000 H   0  0  0  0  0  0  0  0  0  0  0  0
    5.2087   -6.7023    0.0000 H   0  0  0  0  0  0  0  0  0  0  0  0
   11.5263    2.5700    0.0000 H   0  0  0  0  0  0  0  0  0  0  0  0
   10.6603    1.0700    0.0000 H   0  0  0  0  0  0  0  0  0  0  0  0
   12.3923    4.0700    0.0000 H   0  0  0  0  0  0  0  0  0  0  0  0
    9.7942   -0.4300    0.0000 H   0  0  0  0  0  0  0  0  0  0  0  0
    3.5200   -6.7274    0.0000 H   0  0  0  0  0  0  0  0  0  0  0  0
    3.1215   -7.4177    0.0000 H   0  0  0  0  0  0  0  0  0  0  0  0
   13.2583    5.5700    0.0000 H   0  0  0  0  0  0  0  0  0  0  0  0
    3.9441   -8.8926    0.0000 H   0  0  0  0  0  0  0  0  0  0  0  0
    4.3426   -8.2023    0.0000 H   0  0  0  0  0  0  0  0  0  0  0  0
   14.1244   10.3100    0.0000 H   0  0  0  0  0  0  0  0  0  0  0  0
    2.6540   -8.2274    0.0000 H   0  0  0  0  0  0  0  0  0  0  0  0
    2.2554   -8.9177    0.0000 H   0  0  0  0  0  0  0  0  0  0  0  0
   15.5273    9.5000    0.0000 H   0  0  0  0  0  0  0  0  0  0  0  0
   12.3923   10.3100    0.0000 H   0  0  0  0  0  0  0  0  0  0  0  0
    3.0781  -10.3926    0.0000 H   0  0  0  0  0  0  0  0  0  0  0  0
    3.4766   -9.7023    0.0000 H   0  0  0  0  0  0  0  0  0  0  0  0
    1.6900   -9.7731    0.0000 H   0  0  0  0  0  0  0  0  0  0  0  0
    1.4631  -10.6200    0.0000 H   0  0  0  0  0  0  0  0  0  0  0  0
    2.3100  -10.8469    0.0000 H   0  0  0  0  0  0  0  0  0  0  0  0
  9  1  1  1  0  0  0
  1 76  1  0  0  0  0
 11  2  1  1  0  0  0
  2 77  1  0  0  0  0
 13  3  1  1  0  0  0
  3 78  1  0  0  0  0
 15  4  1  6  0  0  0
  4 79  1  0  0  0  0
 17  5  1  1  0  0  0
  5 82  1  0  0  0  0
  6 22  1  0  0  0  0
  6 35  1  0  0  0  0
 28  7  1  1  0  0  0
  7 89  1  0  0  0  0
  8 35  2  0  0  0  0
  9 10  1  0  0  0  0
  9 12  1  0  0  0  0
  9 39  1  0  0  0  0
 10 11  1  0  0  0  0
 10 40  1  0  0  0  0
 10 41  1  0  0  0  0
 11 14  1  0  0  0  0
 11 42  1  0  0  0  0
 12 13  1  0  0  0  0
 12 43  1  0  0  0  0
 12 44  1  0  0  0  0
 13 16  1  0  0  0  0
 13 45  1  0  0  0  0
 14 15  1  0  0  0  0
 14 46  1  0  0  0  0
 14 47  1  0  0  0  0
 15 18  1  0  0  0  0
 15 48  1  0  0  0  0
 16 17  1  0  0  0  0
 16 49  1  0  0  0  0
 16 50  1  0  0  0  0
 17 20  1  0  0  0  0
 17 51  1  0  0  0  0
 18 19  1  0  0  0  0
 18 52  1  0  0  0  0
 18 53  1  0  0  0  0
 19 21  1  0  0  0  0
 19 54  1  0  0  0  0
 19 55  1  0  0  0  0
 22 20  1  1  0  0  0
 20 56  1  0  0  0  0
 20 57  1  0  0  0  0
 21 23  1  0  0  0  0
 21 58  1  0  0  0  0
 21 59  1  0  0  0  0
 22 28  1  0  0  0  0
 22 60  1  0  0  0  0
 23 24  1  0  0  0  0
 23 61  1  0  0  0  0
 23 62  1  0  0  0  0
 24 25  1  0  0  0  0
 24 63  1  0  0  0  0
 24 64  1  0  0  0  0
 25 26  1  0  0  0  0
 25 65  1  0  0  0  0
 25 66  1  0  0  0  0
 26 27  1  0  0  0  0
 26 67  1  0  0  0  0
 26 68  1  0  0  0  0
 27 29  1  0  0  0  0
 27 69  1  0  0  0  0
 27 70  1  0  0  0  0
 28 33  1  0  0  0  0
 28 71  1  0  0  0  0
 29 30  1  0  0  0  0
 29 72  1  0  0  0  0
 29 73  1  0  0  0  0
 30 31  1  0  0  0  0
 30 74  1  0  0  0  0
 30 75  1  0  0  0  0
 31 32  1  0  0  0  0
 31 80  1  0  0  0  0
 31 81  1  0  0  0  0
 32 34  1  0  0  0  0
 32 83  1  0  0  0  0
 32 84  1  0  0  0  0
 33 36  2  0  0  0  0
 33 85  1  0  0  0  0
 34 37  1  0  0  0  0
 34 86  1  0  0  0  0
 34 87  1  0  0  0  0
 35 36  1  0  0  0  0
 36 88  1  0  0  0  0
 37 38  1  0  0  0  0
 37 90  1  0  0  0  0
 37 91  1  0  0  0  0
 38 92  1  0  0  0  0
 38 93  1  0  0  0  0
 38 94  1  0  0  0  0
M  END
> <PUBCHEM_COMPOUND_CID>
54586934

> <PUBCHEM_COMPOUND_CANONICALIZED>
1

> <PUBCHEM_CACTVS_COMPLEXITY>
613

> <PUBCHEM_CACTVS_HBOND_ACCEPTOR>
8

> <PUBCHEM_CACTVS_HBOND_DONOR>
6

> <PUBCHEM_CACTVS_ROTATABLE_BOND>
24

> <PUBCHEM_CACTVS_SUBSKEYS>
AAADcfB4PAAAAAAAAAAAAAAAAAAAAAAAAAAgAAAAAAAAAAAAAAAAGgAACAAACBSggAICCAAABgCIACDSCAAAAAAgAAAICAAAAEgBFAIAIQACUAAFwAALMYPA4KwAAAAAAAAAAAAAAAAAAAAAAAAAAAAAAA==

> <PUBCHEM_IUPAC_OPENEYE_NAME>
(2S,3S)-3-hydroxy-2-[(2S,4S,6S,8S,10R)-2,4,6,8,10-pentahydroxypentacosyl]-2,3-dihydropyran-6-one

> <PUBCHEM_IUPAC_CAS_NAME>
(2S,3S)-3-hydroxy-2-[(2S,4S,6S,8S,10R)-2,4,6,8,10-pentahydroxypentacosyl]-2,3-dihydropyran-6-one

> <PUBCHEM_IUPAC_NAME_MARKUP>
(2<I>S</I>,3<I>S</I>)-3-hydroxy-2-[(2<I>S</I>,4<I>S</I>,6<I>S</I>,8<I>S</I>,10<I>R</I>)-2,4,6,8,10-pentahydroxypentacosyl]-2,3-dihydropyran-6-one

> <PUBCHEM_IUPAC_NAME>
(2S,3S)-3-hydroxy-2-[(2S,4S,6S,8S,10R)-2,4,6,8,10-pentahydroxypentacosyl]-2,3-dihydropyran-6-one

> <PUBCHEM_IUPAC_SYSTEMATIC_NAME>
(2S,3S)-3-oxidanyl-2-[(2S,4S,6S,8S,10R)-2,4,6,8,10-pentakis(oxidanyl)pentacosyl]-2,3-dihydropyran-6-one

> <PUBCHEM_IUPAC_TRADITIONAL_NAME>
(2S,3S)-3-hydroxy-2-[(2S,4S,6S,8S,10R)-2,4,6,8,10-pentahydroxypentacosyl]-2,3-dihydropyran-6-one

> <PUBCHEM_IUPAC_INCHI>
InChI=1S/C30H56O8/c1-2-3-4-5-6-7-8-9-10-11-12-13-14-15-23(31)18-24(32)19-25(33)20-26(34)21-27(35)22-29-28(36)16-17-30(37)38-29/h16-17,23-29,31-36H,2-15,18-22H2,1H3/t23-,24+,25+,26+,27+,28+,29+/m1/s1

> <PUBCHEM_IUPAC_INCHIKEY>
LCODPNNXGVNGAW-KVARLTFLSA-N

> <PUBCHEM_XLOGP3_AA>
6.1

> <PUBCHEM_EXACT_MASS>
544.39751874

> <PUBCHEM_MOLECULAR_FORMULA>
C30H56O8

> <PUBCHEM_MOLECULAR_WEIGHT>
544.8

> <PUBCHEM_OPENEYE_CAN_SMILES>
CCCCCCCCCCCCCCCC(CC(CC(CC(CC(CC1C(C=CC(=O)O1)O)O)O)O)O)O

> <PUBCHEM_OPENEYE_ISO_SMILES>
CCCCCCCCCCCCCCC[C@H](C[C@@H](C[C@@H](C[C@@H](C[C@@H](C[C@H]1[C@H](C=CC(=O)O1)O)O)O)O)O)O

> <PUBCHEM_CACTVS_TPSA>
148

> <PUBCHEM_MONOISOTOPIC_WEIGHT>
544.39751874

> <PUBCHEM_TOTAL_CHARGE>
0

> <PUBCHEM_HEAVY_ATOM_COUNT>
38

> <PUBCHEM_ATOM_DEF_STEREO_COUNT>
7

> <PUBCHEM_ATOM_UDEF_STEREO_COUNT>
0

> <PUBCHEM_BOND_DEF_STEREO_COUNT>
0

> <PUBCHEM_BOND_UDEF_STEREO_COUNT>
0

> <PUBCHEM_ISOTOPIC_ATOM_COUNT>
0

> <PUBCHEM_COMPONENT_COUNT>
1

> <PUBCHEM_CACTVS_TAUTO_COUNT>
-1

> <PUBCHEM_COORDINATE_TYPE>
1
5
255

> <PUBCHEM_BONDANNOTATIONS>
9  1  5
11  2  5
22  20  5
13  3  5
15  4  6
17  5  5
28  7  5

$$$$
