54583047
  -OEChem-05162307462D

 99 99  0     1  0  0  0  0  0999 V2000
    2.8660    0.1900    0.0000 O   0  0  0  0  0  0  0  0  0  0  0  0
    5.4641    1.6900    0.0000 O   0  0  0  0  0  0  0  0  0  0  0  0
    6.3301    3.1900    0.0000 O   0  0  0  0  0  0  0  0  0  0  0  0
    7.1962    4.6900    0.0000 O   0  0  0  0  0  0  0  0  0  0  0  0
    8.0622    6.1900    0.0000 O   0  0  0  0  0  0  0  0  0  0  0  0
    8.9282    7.6900    0.0000 O   0  0  0  0  0  0  0  0  0  0  0  0
    7.1962    9.6900    0.0000 O   0  0  0  0  0  0  0  0  0  0  0  0
    3.7320   -1.3100    0.0000 O   0  0  0  0  0  0  0  0  0  0  0  0
   10.6603    7.6900    0.0000 O   0  0  0  0  0  0  0  0  0  0  0  0
    4.5981    2.1900    0.0000 C   0  0  2  0  0  0  0  0  0  0  0  0
    5.4641    3.6900    0.0000 C   0  0  1  0  0  0  0  0  0  0  0  0
    4.5981    3.1900    0.0000 C   0  0  0  0  0  0  0  0  0  0  0  0
    3.7320    1.6900    0.0000 C   0  0  0  0  0  0  0  0  0  0  0  0
    3.7320    0.6900    0.0000 C   0  0  1  0  0  0  0  0  0  0  0  0
    5.4641    4.6900    0.0000 C   0  0  0  0  0  0  0  0  0  0  0  0
    6.3301    5.1900    0.0000 C   0  0  1  0  0  0  0  0  0  0  0  0
    4.5981    0.1900    0.0000 C   0  0  0  0  0  0  0  0  0  0  0  0
    6.3301    6.1900    0.0000 C   0  0  0  0  0  0  0  0  0  0  0  0
    7.1962    6.6900    0.0000 C   0  0  1  0  0  0  0  0  0  0  0  0
    4.5981   -0.8100    0.0000 C   0  0  0  0  0  0  0  0  0  0  0  0
    5.4641   -1.3100    0.0000 C   0  0  0  0  0  0  0  0  0  0  0  0
    7.1962    7.6900    0.0000 C   0  0  0  0  0  0  0  0  0  0  0  0
    5.4641   -2.3100    0.0000 C   0  0  0  0  0  0  0  0  0  0  0  0
    8.0622    8.1900    0.0000 C   0  0  1  0  0  0  0  0  0  0  0  0
    6.3301   -2.8100    0.0000 C   0  0  0  0  0  0  0  0  0  0  0  0
    6.3301   -3.8100    0.0000 C   0  0  0  0  0  0  0  0  0  0  0  0
    7.1962   -4.3100    0.0000 C   0  0  0  0  0  0  0  0  0  0  0  0
    7.1962   -5.3100    0.0000 C   0  0  0  0  0  0  0  0  0  0  0  0
    8.0622    9.1900    0.0000 C   0  0  2  0  0  0  0  0  0  0  0  0
    8.0622   -5.8100    0.0000 C   0  0  0  0  0  0  0  0  0  0  0  0
    8.0622   -6.8100    0.0000 C   0  0  0  0  0  0  0  0  0  0  0  0
    8.9282   -7.3100    0.0000 C   0  0  0  0  0  0  0  0  0  0  0  0
    8.9282    9.6900    0.0000 C   0  0  0  0  0  0  0  0  0  0  0  0
    8.9282   -8.3100    0.0000 C   0  0  0  0  0  0  0  0  0  0  0  0
    2.8660   -0.8100    0.0000 C   0  0  0  0  0  0  0  0  0  0  0  0
    9.7942   -8.8100    0.0000 C   0  0  0  0  0  0  0  0  0  0  0  0
    9.7942    8.1900    0.0000 C   0  0  0  0  0  0  0  0  0  0  0  0
    9.7942    9.1900    0.0000 C   0  0  0  0  0  0  0  0  0  0  0  0
    9.7942   -9.8100    0.0000 C   0  0  0  0  0  0  0  0  0  0  0  0
    2.0000   -1.3100    0.0000 C   0  0  0  0  0  0  0  0  0  0  0  0
   10.6603  -10.3100    0.0000 C   0  0  0  0  0  0  0  0  0  0  0  0
    4.5981    1.5700    0.0000 H   0  0  0  0  0  0  0  0  0  0  0  0
    5.4641    3.0700    0.0000 H   0  0  0  0  0  0  0  0  0  0  0  0
    4.3860    3.7726    0.0000 H   0  0  0  0  0  0  0  0  0  0  0  0
    3.9875    3.0823    0.0000 H   0  0  0  0  0  0  0  0  0  0  0  0
    3.5200    2.2726    0.0000 H   0  0  0  0  0  0  0  0  0  0  0  0
    3.1215    1.5823    0.0000 H   0  0  0  0  0  0  0  0  0  0  0  0
    3.7320    0.0700    0.0000 H   0  0  0  0  0  0  0  0  0  0  0  0
    5.2520    5.2726    0.0000 H   0  0  0  0  0  0  0  0  0  0  0  0
    4.8535    4.5823    0.0000 H   0  0  0  0  0  0  0  0  0  0  0  0
    6.8671    5.5000    0.0000 H   0  0  0  0  0  0  0  0  0  0  0  0
    5.2087    0.0823    0.0000 H   0  0  0  0  0  0  0  0  0  0  0  0
    4.8101    0.7726    0.0000 H   0  0  0  0  0  0  0  0  0  0  0  0
    6.1181    6.7726    0.0000 H   0  0  0  0  0  0  0  0  0  0  0  0
    5.7196    6.0823    0.0000 H   0  0  0  0  0  0  0  0  0  0  0  0
    7.7331    7.0000    0.0000 H   0  0  0  0  0  0  0  0  0  0  0  0
    3.9875   -0.7023    0.0000 H   0  0  0  0  0  0  0  0  0  0  0  0
    4.3860   -1.3926    0.0000 H   0  0  0  0  0  0  0  0  0  0  0  0
    6.0747   -1.4177    0.0000 H   0  0  0  0  0  0  0  0  0  0  0  0
    5.6762   -0.7274    0.0000 H   0  0  0  0  0  0  0  0  0  0  0  0
    6.9841    8.2726    0.0000 H   0  0  0  0  0  0  0  0  0  0  0  0
    6.5856    7.5823    0.0000 H   0  0  0  0  0  0  0  0  0  0  0  0
    4.8535   -2.2023    0.0000 H   0  0  0  0  0  0  0  0  0  0  0  0
    5.2520   -2.8926    0.0000 H   0  0  0  0  0  0  0  0  0  0  0  0
    8.0622    7.5700    0.0000 H   0  0  0  0  0  0  0  0  0  0  0  0
    6.9407   -2.9177    0.0000 H   0  0  0  0  0  0  0  0  0  0  0  0
    6.5422   -2.2274    0.0000 H   0  0  0  0  0  0  0  0  0  0  0  0
    5.7196   -3.7023    0.0000 H   0  0  0  0  0  0  0  0  0  0  0  0
    6.1181   -4.3926    0.0000 H   0  0  0  0  0  0  0  0  0  0  0  0
    7.8067   -4.4177    0.0000 H   0  0  0  0  0  0  0  0  0  0  0  0
    7.4082   -3.7274    0.0000 H   0  0  0  0  0  0  0  0  0  0  0  0
    6.5856   -5.2023    0.0000 H   0  0  0  0  0  0  0  0  0  0  0  0
    6.9841   -5.8926    0.0000 H   0  0  0  0  0  0  0  0  0  0  0  0
    8.0622    9.8100    0.0000 H   0  0  0  0  0  0  0  0  0  0  0  0
    8.6728   -5.9177    0.0000 H   0  0  0  0  0  0  0  0  0  0  0  0
    8.2742   -5.2274    0.0000 H   0  0  0  0  0  0  0  0  0  0  0  0
    5.4641    1.0700    0.0000 H   0  0  0  0  0  0  0  0  0  0  0  0
    6.3301    2.5700    0.0000 H   0  0  0  0  0  0  0  0  0  0  0  0
    7.4516   -6.7023    0.0000 H   0  0  0  0  0  0  0  0  0  0  0  0
    7.8501   -7.3926    0.0000 H   0  0  0  0  0  0  0  0  0  0  0  0
    7.1962    4.0700    0.0000 H   0  0  0  0  0  0  0  0  0  0  0  0
    9.5388   -7.4177    0.0000 H   0  0  0  0  0  0  0  0  0  0  0  0
    9.1403   -6.7274    0.0000 H   0  0  0  0  0  0  0  0  0  0  0  0
    8.0622    5.5700    0.0000 H   0  0  0  0  0  0  0  0  0  0  0  0
    8.9282   10.3100    0.0000 H   0  0  0  0  0  0  0  0  0  0  0  0
    8.3176   -8.2023    0.0000 H   0  0  0  0  0  0  0  0  0  0  0  0
    8.7162   -8.8926    0.0000 H   0  0  0  0  0  0  0  0  0  0  0  0
   10.4048   -8.9177    0.0000 H   0  0  0  0  0  0  0  0  0  0  0  0
   10.0063   -8.2274    0.0000 H   0  0  0  0  0  0  0  0  0  0  0  0
   10.3312    9.5000    0.0000 H   0  0  0  0  0  0  0  0  0  0  0  0
    7.1962   10.3100    0.0000 H   0  0  0  0  0  0  0  0  0  0  0  0
    9.1836   -9.7023    0.0000 H   0  0  0  0  0  0  0  0  0  0  0  0
    9.5822  -10.3926    0.0000 H   0  0  0  0  0  0  0  0  0  0  0  0
    1.6900   -0.7731    0.0000 H   0  0  0  0  0  0  0  0  0  0  0  0
    1.4631   -1.6200    0.0000 H   0  0  0  0  0  0  0  0  0  0  0  0
    2.3100   -1.8469    0.0000 H   0  0  0  0  0  0  0  0  0  0  0  0
   10.3503  -10.8469    0.0000 H   0  0  0  0  0  0  0  0  0  0  0  0
   11.1972  -10.6200    0.0000 H   0  0  0  0  0  0  0  0  0  0  0  0
   10.9703   -9.7731    0.0000 H   0  0  0  0  0  0  0  0  0  0  0  0
 14  1  1  1  0  0  0
  1 35  1  0  0  0  0
 10  2  1  1  0  0  0
  2 77  1  0  0  0  0
 11  3  1  1  0  0  0
  3 78  1  0  0  0  0
 16  4  1  1  0  0  0
  4 81  1  0  0  0  0
 19  5  1  1  0  0  0
  5 84  1  0  0  0  0
  6 24  1  0  0  0  0
  6 37  1  0  0  0  0
 29  7  1  1  0  0  0
  7 91  1  0  0  0  0
  8 35  2  0  0  0  0
  9 37  2  0  0  0  0
 10 12  1  0  0  0  0
 10 13  1  0  0  0  0
 10 42  1  0  0  0  0
 11 12  1  0  0  0  0
 11 15  1  0  0  0  0
 11 43  1  0  0  0  0
 12 44  1  0  0  0  0
 12 45  1  0  0  0  0
 13 14  1  0  0  0  0
 13 46  1  0  0  0  0
 13 47  1  0  0  0  0
 14 17  1  0  0  0  0
 14 48  1  0  0  0  0
 15 16  1  0  0  0  0
 15 49  1  0  0  0  0
 15 50  1  0  0  0  0
 16 18  1  0  0  0  0
 16 51  1  0  0  0  0
 17 20  1  0  0  0  0
 17 52  1  0  0  0  0
 17 53  1  0  0  0  0
 18 19  1  0  0  0  0
 18 54  1  0  0  0  0
 18 55  1  0  0  0  0
 19 22  1  0  0  0  0
 19 56  1  0  0  0  0
 20 21  1  0  0  0  0
 20 57  1  0  0  0  0
 20 58  1  0  0  0  0
 21 23  1  0  0  0  0
 21 59  1  0  0  0  0
 21 60  1  0  0  0  0
 24 22  1  1  0  0  0
 22 61  1  0  0  0  0
 22 62  1  0  0  0  0
 23 25  1  0  0  0  0
 23 63  1  0  0  0  0
 23 64  1  0  0  0  0
 24 29  1  0  0  0  0
 24 65  1  0  0  0  0
 25 26  1  0  0  0  0
 25 66  1  0  0  0  0
 25 67  1  0  0  0  0
 26 27  1  0  0  0  0
 26 68  1  0  0  0  0
 26 69  1  0  0  0  0
 27 28  1  0  0  0  0
 27 70  1  0  0  0  0
 27 71  1  0  0  0  0
 28 30  1  0  0  0  0
 28 72  1  0  0  0  0
 28 73  1  0  0  0  0
 29 33  1  0  0  0  0
 29 74  1  0  0  0  0
 30 31  1  0  0  0  0
 30 75  1  0  0  0  0
 30 76  1  0  0  0  0
 31 32  1  0  0  0  0
 31 79  1  0  0  0  0
 31 80  1  0  0  0  0
 32 34  1  0  0  0  0
 32 82  1  0  0  0  0
 32 83  1  0  0  0  0
 33 38  2  0  0  0  0
 33 85  1  0  0  0  0
 34 36  1  0  0  0  0
 34 86  1  0  0  0  0
 34 87  1  0  0  0  0
 35 40  1  0  0  0  0
 36 39  1  0  0  0  0
 36 88  1  0  0  0  0
 36 89  1  0  0  0  0
 37 38  1  0  0  0  0
 38 90  1  0  0  0  0
 39 41  1  0  0  0  0
 39 92  1  0  0  0  0
 39 93  1  0  0  0  0
 40 94  1  0  0  0  0
 40 95  1  0  0  0  0
 40 96  1  0  0  0  0
 41 97  1  0  0  0  0
 41 98  1  0  0  0  0
 41 99  1  0  0  0  0
M  END
> <PUBCHEM_COMPOUND_CID>
54583047

> <PUBCHEM_COMPOUND_CANONICALIZED>
1

> <PUBCHEM_CACTVS_COMPLEXITY>
713

> <PUBCHEM_CACTVS_HBOND_ACCEPTOR>
9

> <PUBCHEM_CACTVS_HBOND_DONOR>
5

> <PUBCHEM_CACTVS_ROTATABLE_BOND>
26

> <PUBCHEM_CACTVS_SUBSKEYS>
AAADcfB8PAAAAAAAAAAAAAAAAAAAAAAAAAAgAAAAAAAAAAAAAAAAGgAACAAACBSggAICCAAABgCIACDSCAAAAAAgAAAICAAAAEgBFAIAIQACUAAFwAALMYPA4KwAAAAAAAAAAAAAAAAAAAAAAAAAAAAAAA==

> <PUBCHEM_IUPAC_OPENEYE_NAME>
[(1R)-1-[(2R,4R,6S,8S)-2,4,6,8-tetrahydroxy-9-[(2S,3S)-3-hydroxy-6-oxo-2,3-dihydropyran-2-yl]nonyl]hexadecyl] acetate

> <PUBCHEM_IUPAC_CAS_NAME>
acetic acid [(2S,4S,6R,8R,10R)-2,4,6,8-tetrahydroxy-1-[(2S,3S)-3-hydroxy-6-oxo-2,3-dihydropyran-2-yl]pentacosan-10-yl] ester

> <PUBCHEM_IUPAC_NAME_MARKUP>
[(2<I>S</I>,4<I>S</I>,6<I>R</I>,8<I>R</I>,10<I>R</I>)-2,4,6,8-tetrahydroxy-1-[(2<I>S</I>,3<I>S</I>)-3-hydroxy-6-oxo-2,3-dihydropyran-2-yl]pentacosan-10-yl] acetate

> <PUBCHEM_IUPAC_NAME>
[(2S,4S,6R,8R,10R)-2,4,6,8-tetrahydroxy-1-[(2S,3S)-3-hydroxy-6-oxo-2,3-dihydropyran-2-yl]pentacosan-10-yl] acetate

> <PUBCHEM_IUPAC_SYSTEMATIC_NAME>
[(2S,4S,6R,8R,10R)-2,4,6,8-tetrakis(oxidanyl)-1-[(2S,3S)-3-oxidanyl-6-oxidanylidene-2,3-dihydropyran-2-yl]pentacosan-10-yl] ethanoate

> <PUBCHEM_IUPAC_TRADITIONAL_NAME>
acetic acid [(1R)-1-[(2R,4R,6S,8S)-2,4,6,8-tetrahydroxy-9-[(2S,3S)-3-hydroxy-6-keto-2,3-dihydropyran-2-yl]nonyl]hexadecyl] ester

> <PUBCHEM_IUPAC_INCHI>
InChI=1S/C32H58O9/c1-3-4-5-6-7-8-9-10-11-12-13-14-15-16-29(40-24(2)33)22-27(36)20-25(34)19-26(35)21-28(37)23-31-30(38)17-18-32(39)41-31/h17-18,25-31,34-38H,3-16,19-23H2,1-2H3/t25-,26+,27-,28+,29-,30+,31+/m1/s1

> <PUBCHEM_IUPAC_INCHIKEY>
QTODHKJVJUSIHI-YEWNYCFTSA-N

> <PUBCHEM_XLOGP3_AA>
6.7

> <PUBCHEM_EXACT_MASS>
586.40808342

> <PUBCHEM_MOLECULAR_FORMULA>
C32H58O9

> <PUBCHEM_MOLECULAR_WEIGHT>
586.8

> <PUBCHEM_OPENEYE_CAN_SMILES>
CCCCCCCCCCCCCCCC(CC(CC(CC(CC(CC1C(C=CC(=O)O1)O)O)O)O)O)OC(=O)C

> <PUBCHEM_OPENEYE_ISO_SMILES>
CCCCCCCCCCCCCCC[C@H](C[C@@H](C[C@@H](C[C@@H](C[C@@H](C[C@H]1[C@H](C=CC(=O)O1)O)O)O)O)O)OC(=O)C

> <PUBCHEM_CACTVS_TPSA>
154

> <PUBCHEM_MONOISOTOPIC_WEIGHT>
586.40808342

> <PUBCHEM_TOTAL_CHARGE>
0

> <PUBCHEM_HEAVY_ATOM_COUNT>
41

> <PUBCHEM_ATOM_DEF_STEREO_COUNT>
7

> <PUBCHEM_ATOM_UDEF_STEREO_COUNT>
0

> <PUBCHEM_BOND_DEF_STEREO_COUNT>
0

> <PUBCHEM_BOND_UDEF_STEREO_COUNT>
0

> <PUBCHEM_ISOTOPIC_ATOM_COUNT>
0

> <PUBCHEM_COMPONENT_COUNT>
1

> <PUBCHEM_CACTVS_TAUTO_COUNT>
-1

> <PUBCHEM_COORDINATE_TYPE>
1
5
255

> <PUBCHEM_BONDANNOTATIONS>
14  1  5
10  2  5
24  22  5
11  3  5
16  4  5
19  5  5
29  7  5

$$$$
