46939683
  -OEChem-05162310372D

 38 41  0     1  0  0  0  0  0999 V2000
    3.5836   -1.6706    0.0000 O   0  0  0  0  0  0  0  0  0  0  0  0
    7.1719    0.1410    0.0000 O   0  0  0  0  0  0  0  0  0  0  0  0
    5.3958   -2.8659    0.0000 O   0  0  0  0  0  0  0  0  0  0  0  0
    4.5080    1.6656    0.0000 O   0  0  0  0  0  0  0  0  0  0  0  0
    2.0000   -0.8659    0.0000 O   0  0  0  0  0  0  0  0  0  0  0  0
    4.5298   -0.3659    0.0000 C   0  0  1  0  0  0  0  0  0  0  0  0
    4.5298   -1.3659    0.0000 C   0  0  2  0  0  0  0  0  0  0  0  0
    5.3958   -1.8659    0.0000 C   0  0  2  0  0  0  0  0  0  0  0  0
    5.3958    0.1341    0.0000 C   0  0  0  0  0  0  0  0  0  0  0  0
    6.2619   -1.3659    0.0000 C   0  0  0  0  0  0  0  0  0  0  0  0
    3.5836   -0.0611    0.0000 C   0  0  0  0  0  0  0  0  0  0  0  0
    6.2619   -0.3659    0.0000 C   0  0  0  0  0  0  0  0  0  0  0  0
    5.3798    1.1756    0.0000 C   0  0  0  0  0  0  0  0  0  0  0  0
    3.0000   -0.8659    0.0000 C   0  0  0  0  0  0  0  0  0  0  0  0
    7.1799    1.1826    0.0000 C   0  0  1  0  0  0  0  0  0  0  0  0
    6.2778    1.7034    0.0000 C   0  0  0  0  0  0  0  0  0  0  0  0
    8.0479    1.6792    0.0000 C   0  0  0  0  0  0  0  0  0  0  0  0
    8.9119    1.1759    0.0000 C   0  0  0  0  0  0  0  0  0  0  0  0
    8.0517    2.6792    0.0000 C   0  0  0  0  0  0  0  0  0  0  0  0
    9.7799    1.6726    0.0000 C   0  0  0  0  0  0  0  0  0  0  0  0
    8.9197    3.1759    0.0000 C   0  0  0  0  0  0  0  0  0  0  0  0
    9.7838    2.6725    0.0000 C   0  0  0  0  0  0  0  0  0  0  0  0
    4.4399    0.4794    0.0000 H   0  0  0  0  0  0  0  0  0  0  0  0
    4.4399   -2.2111    0.0000 H   0  0  0  0  0  0  0  0  0  0  0  0
    5.9328   -2.1759    0.0000 H   0  0  0  0  0  0  0  0  0  0  0  0
    6.4739   -1.9485    0.0000 H   0  0  0  0  0  0  0  0  0  0  0  0
    6.8725   -1.2582    0.0000 H   0  0  0  0  0  0  0  0  0  0  0  0
    3.8346    0.5058    0.0000 H   0  0  0  0  0  0  0  0  0  0  0  0
    3.0462    0.2481    0.0000 H   0  0  0  0  0  0  0  0  0  0  0  0
    7.1811    1.8026    0.0000 H   0  0  0  0  0  0  0  0  0  0  0  0
    6.6751    2.1794    0.0000 H   0  0  0  0  0  0  0  0  0  0  0  0
    5.8769    2.1763    0.0000 H   0  0  0  0  0  0  0  0  0  0  0  0
    5.9328   -3.1759    0.0000 H   0  0  0  0  0  0  0  0  0  0  0  0
    8.9096    0.5559    0.0000 H   0  0  0  0  0  0  0  0  0  0  0  0
    7.5160    2.9913    0.0000 H   0  0  0  0  0  0  0  0  0  0  0  0
   10.3156    1.3605    0.0000 H   0  0  0  0  0  0  0  0  0  0  0  0
    8.9220    3.7959    0.0000 H   0  0  0  0  0  0  0  0  0  0  0  0
   10.3219    2.9805    0.0000 H   0  0  0  0  0  0  0  0  0  0  0  0
  1  7  1  0  0  0  0
  1 14  1  0  0  0  0
  2 12  1  0  0  0  0
  2 15  1  0  0  0  0
  8  3  1  6  0  0  0
  3 33  1  0  0  0  0
  4 13  2  0  0  0  0
  5 14  2  0  0  0  0
  6  7  1  0  0  0  0
  6  9  1  0  0  0  0
  6 11  1  0  0  0  0
  6 23  1  1  0  0  0
  7  8  1  0  0  0  0
  7 24  1  1  0  0  0
  8 10  1  0  0  0  0
  8 25  1  0  0  0  0
  9 12  2  0  0  0  0
  9 13  1  0  0  0  0
 10 12  1  0  0  0  0
 10 26  1  0  0  0  0
 10 27  1  0  0  0  0
 11 14  1  0  0  0  0
 11 28  1  0  0  0  0
 11 29  1  0  0  0  0
 13 16  1  0  0  0  0
 15 16  1  0  0  0  0
 15 17  1  1  0  0  0
 15 30  1  0  0  0  0
 16 31  1  0  0  0  0
 16 32  1  0  0  0  0
 17 18  2  0  0  0  0
 17 19  1  0  0  0  0
 18 20  1  0  0  0  0
 18 34  1  0  0  0  0
 19 21  2  0  0  0  0
 19 35  1  0  0  0  0
 20 22  2  0  0  0  0
 20 36  1  0  0  0  0
 21 22  1  0  0  0  0
 21 37  1  0  0  0  0
 22 38  1  0  0  0  0
M  END
> <PUBCHEM_COMPOUND_CID>
46939683

> <PUBCHEM_COMPOUND_CANONICALIZED>
1

> <PUBCHEM_CACTVS_COMPLEXITY>
531

> <PUBCHEM_CACTVS_HBOND_ACCEPTOR>
5

> <PUBCHEM_CACTVS_HBOND_DONOR>
1

> <PUBCHEM_CACTVS_ROTATABLE_BOND>
1

> <PUBCHEM_CACTVS_SUBSKEYS>
AAADceB4OAAAAAAAAAAAAAAAAAAAASAAAAAwQIAAAAAAAECRAAAAGgAACAAADRSgmAIwCIAABgCIAqDSCAACCAAgIAAIiAEACMgJNjaAMRiCcAAl4AELqQfK7vTuAAAAAAAAAAAAAAAAAAAAAAAAAAAAAA==

> <PUBCHEM_IUPAC_OPENEYE_NAME>
(3aR,4S,7S,9bR)-4-hydroxy-7-phenyl-3a,4,5,7,8,9b-hexahydro-1H-furo[3,2-f]chromene-2,9-dione

> <PUBCHEM_IUPAC_CAS_NAME>
(3aR,4S,7S,9bR)-4-hydroxy-7-phenyl-3a,4,5,7,8,9b-hexahydro-1H-furo[3,2-f][1]benzopyran-2,9-dione

> <PUBCHEM_IUPAC_NAME_MARKUP>
(3<I>a</I><I>R</I>,4<I>S</I>,7<I>S</I>,9<I>b</I><I>R</I>)-4-hydroxy-7-phenyl-3<I>a</I>,4,5,7,8,9<I>b</I>-hexahydro-1<I>H</I>-furo[3,2-f]chromene-2,9-dione

> <PUBCHEM_IUPAC_NAME>
(3aR,4S,7S,9bR)-4-hydroxy-7-phenyl-3a,4,5,7,8,9b-hexahydro-1H-furo[3,2-f]chromene-2,9-dione

> <PUBCHEM_IUPAC_SYSTEMATIC_NAME>
(3aR,4S,7S,9bR)-4-oxidanyl-7-phenyl-3a,4,5,7,8,9b-hexahydro-1H-furo[3,2-f]chromene-2,9-dione

> <PUBCHEM_IUPAC_TRADITIONAL_NAME>
(3aR,4S,7S,9bR)-4-hydroxy-7-phenyl-3a,4,5,7,8,9b-hexahydro-1H-furo[3,2-f]chromene-2,9-quinone

> <PUBCHEM_IUPAC_INCHI>
InChI=1S/C17H16O5/c18-11-7-13(9-4-2-1-3-5-9)21-14-8-12(19)17-10(16(11)14)6-15(20)22-17/h1-5,10,12-13,17,19H,6-8H2/t10-,12+,13+,17-/m1/s1

> <PUBCHEM_IUPAC_INCHIKEY>
LCYOEQRSFIXYFW-FIHUPRISSA-N

> <PUBCHEM_XLOGP3_AA>
0.6

> <PUBCHEM_EXACT_MASS>
300.09977361

> <PUBCHEM_MOLECULAR_FORMULA>
C17H16O5

> <PUBCHEM_MOLECULAR_WEIGHT>
300.30

> <PUBCHEM_OPENEYE_CAN_SMILES>
C1C2C(C(CC3=C2C(=O)CC(O3)C4=CC=CC=C4)O)OC1=O

> <PUBCHEM_OPENEYE_ISO_SMILES>
C1[C@H]2[C@H]([C@H](CC3=C2C(=O)C[C@H](O3)C4=CC=CC=C4)O)OC1=O

> <PUBCHEM_CACTVS_TPSA>
72.8

> <PUBCHEM_MONOISOTOPIC_WEIGHT>
300.09977361

> <PUBCHEM_TOTAL_CHARGE>
0

> <PUBCHEM_HEAVY_ATOM_COUNT>
22

> <PUBCHEM_ATOM_DEF_STEREO_COUNT>
4

> <PUBCHEM_ATOM_UDEF_STEREO_COUNT>
0

> <PUBCHEM_BOND_DEF_STEREO_COUNT>
0

> <PUBCHEM_BOND_UDEF_STEREO_COUNT>
0

> <PUBCHEM_ISOTOPIC_ATOM_COUNT>
0

> <PUBCHEM_COMPONENT_COUNT>
1

> <PUBCHEM_CACTVS_TAUTO_COUNT>
-1

> <PUBCHEM_COORDINATE_TYPE>
1
5
255

> <PUBCHEM_BONDANNOTATIONS>
15  17  5
17  18  8
17  19  8
18  20  8
19  21  8
20  22  8
21  22  8
8  3  6
6  23  5
7  24  5

$$$$
