54585961
  -OEChem-05162308532D

 87 87  0     1  0  0  0  0  0999 V2000
   10.6603    2.4400    0.0000 O   0  0  0  0  0  0  0  0  0  0  0  0
   11.5263    3.9400    0.0000 O   0  0  0  0  0  0  0  0  0  0  0  0
    9.7942    0.9400    0.0000 O   0  0  0  0  0  0  0  0  0  0  0  0
   12.3923    5.4400    0.0000 O   0  0  0  0  0  0  0  0  0  0  0  0
   13.2583    6.9400    0.0000 O   0  0  0  0  0  0  0  0  0  0  0  0
   11.5263    8.9400    0.0000 O   0  0  0  0  0  0  0  0  0  0  0  0
   14.9904    6.9400    0.0000 O   0  0  0  0  0  0  0  0  0  0  0  0
    9.7942    2.9400    0.0000 C   0  0  2  0  0  0  0  0  0  0  0  0
    9.7942    3.9400    0.0000 C   0  0  0  0  0  0  0  0  0  0  0  0
   10.6603    4.4400    0.0000 C   0  0  1  0  0  0  0  0  0  0  0  0
    8.9282    2.4400    0.0000 C   0  0  0  0  0  0  0  0  0  0  0  0
    8.9282    1.4400    0.0000 C   0  0  1  0  0  0  0  0  0  0  0  0
   10.6603    5.4400    0.0000 C   0  0  0  0  0  0  0  0  0  0  0  0
   11.5263    5.9400    0.0000 C   0  0  1  0  0  0  0  0  0  0  0  0
    8.0622    0.9400    0.0000 C   0  0  0  0  0  0  0  0  0  0  0  0
    8.0622   -0.0600    0.0000 C   0  0  0  0  0  0  0  0  0  0  0  0
   11.5263    6.9400    0.0000 C   0  0  0  0  0  0  0  0  0  0  0  0
    7.1962   -0.5600    0.0000 C   0  0  0  0  0  0  0  0  0  0  0  0
    7.1962   -1.5600    0.0000 C   0  0  0  0  0  0  0  0  0  0  0  0
   12.3923    7.4400    0.0000 C   0  0  1  0  0  0  0  0  0  0  0  0
    6.3301   -2.0600    0.0000 C   0  0  0  0  0  0  0  0  0  0  0  0
    6.3301   -3.0600    0.0000 C   0  0  0  0  0  0  0  0  0  0  0  0
    5.4641   -3.5600    0.0000 C   0  0  0  0  0  0  0  0  0  0  0  0
    5.4641   -4.5600    0.0000 C   0  0  0  0  0  0  0  0  0  0  0  0
   12.3923    8.4400    0.0000 C   0  0  2  0  0  0  0  0  0  0  0  0
    4.5981   -5.0600    0.0000 C   0  0  0  0  0  0  0  0  0  0  0  0
    4.5981   -6.0600    0.0000 C   0  0  0  0  0  0  0  0  0  0  0  0
    3.7320   -6.5600    0.0000 C   0  0  0  0  0  0  0  0  0  0  0  0
    3.7320   -7.5600    0.0000 C   0  0  0  0  0  0  0  0  0  0  0  0
   13.2583    8.9400    0.0000 C   0  0  0  0  0  0  0  0  0  0  0  0
    2.8660   -8.0600    0.0000 C   0  0  0  0  0  0  0  0  0  0  0  0
   14.1244    7.4400    0.0000 C   0  0  0  0  0  0  0  0  0  0  0  0
   14.1244    8.4400    0.0000 C   0  0  0  0  0  0  0  0  0  0  0  0
    2.8660   -9.0600    0.0000 C   0  0  0  0  0  0  0  0  0  0  0  0
    2.0000   -9.5600    0.0000 C   0  0  0  0  0  0  0  0  0  0  0  0
    9.7942    2.3200    0.0000 H   0  0  0  0  0  0  0  0  0  0  0  0
    9.5822    4.5226    0.0000 H   0  0  0  0  0  0  0  0  0  0  0  0
    9.1836    3.8323    0.0000 H   0  0  0  0  0  0  0  0  0  0  0  0
   11.1972    4.7500    0.0000 H   0  0  0  0  0  0  0  0  0  0  0  0
    8.7162    3.0226    0.0000 H   0  0  0  0  0  0  0  0  0  0  0  0
    8.3176    2.3323    0.0000 H   0  0  0  0  0  0  0  0  0  0  0  0
    9.4651    1.7500    0.0000 H   0  0  0  0  0  0  0  0  0  0  0  0
   10.4482    6.0226    0.0000 H   0  0  0  0  0  0  0  0  0  0  0  0
   10.0497    5.3323    0.0000 H   0  0  0  0  0  0  0  0  0  0  0  0
   12.0632    6.2500    0.0000 H   0  0  0  0  0  0  0  0  0  0  0  0
    7.8501    1.5226    0.0000 H   0  0  0  0  0  0  0  0  0  0  0  0
    7.4516    0.8323    0.0000 H   0  0  0  0  0  0  0  0  0  0  0  0
    8.2742   -0.6426    0.0000 H   0  0  0  0  0  0  0  0  0  0  0  0
    8.6728    0.0477    0.0000 H   0  0  0  0  0  0  0  0  0  0  0  0
   11.3142    7.5226    0.0000 H   0  0  0  0  0  0  0  0  0  0  0  0
   10.9157    6.8323    0.0000 H   0  0  0  0  0  0  0  0  0  0  0  0
    6.9841    0.0226    0.0000 H   0  0  0  0  0  0  0  0  0  0  0  0
    6.5856   -0.6677    0.0000 H   0  0  0  0  0  0  0  0  0  0  0  0
    7.4082   -2.1426    0.0000 H   0  0  0  0  0  0  0  0  0  0  0  0
    7.8067   -1.4523    0.0000 H   0  0  0  0  0  0  0  0  0  0  0  0
   12.3923    6.8200    0.0000 H   0  0  0  0  0  0  0  0  0  0  0  0
    6.1181   -1.4774    0.0000 H   0  0  0  0  0  0  0  0  0  0  0  0
    5.7196   -2.1677    0.0000 H   0  0  0  0  0  0  0  0  0  0  0  0
    6.5422   -3.6426    0.0000 H   0  0  0  0  0  0  0  0  0  0  0  0
    6.9407   -2.9523    0.0000 H   0  0  0  0  0  0  0  0  0  0  0  0
    5.2520   -2.9774    0.0000 H   0  0  0  0  0  0  0  0  0  0  0  0
    4.8535   -3.6677    0.0000 H   0  0  0  0  0  0  0  0  0  0  0  0
    5.6762   -5.1426    0.0000 H   0  0  0  0  0  0  0  0  0  0  0  0
    6.0747   -4.4523    0.0000 H   0  0  0  0  0  0  0  0  0  0  0  0
   11.8554    8.1300    0.0000 H   0  0  0  0  0  0  0  0  0  0  0  0
    4.3860   -4.4774    0.0000 H   0  0  0  0  0  0  0  0  0  0  0  0
    3.9875   -5.1677    0.0000 H   0  0  0  0  0  0  0  0  0  0  0  0
    4.8101   -6.6426    0.0000 H   0  0  0  0  0  0  0  0  0  0  0  0
    5.2087   -5.9523    0.0000 H   0  0  0  0  0  0  0  0  0  0  0  0
   10.6603    1.8200    0.0000 H   0  0  0  0  0  0  0  0  0  0  0  0
    3.5200   -5.9774    0.0000 H   0  0  0  0  0  0  0  0  0  0  0  0
    3.1215   -6.6677    0.0000 H   0  0  0  0  0  0  0  0  0  0  0  0
   11.5263    3.3200    0.0000 H   0  0  0  0  0  0  0  0  0  0  0  0
    9.7942    0.3200    0.0000 H   0  0  0  0  0  0  0  0  0  0  0  0
   12.3923    4.8200    0.0000 H   0  0  0  0  0  0  0  0  0  0  0  0
    3.9441   -8.1426    0.0000 H   0  0  0  0  0  0  0  0  0  0  0  0
    4.3426   -7.4523    0.0000 H   0  0  0  0  0  0  0  0  0  0  0  0
   13.2583    9.5600    0.0000 H   0  0  0  0  0  0  0  0  0  0  0  0
    2.6540   -7.4774    0.0000 H   0  0  0  0  0  0  0  0  0  0  0  0
    2.2554   -8.1677    0.0000 H   0  0  0  0  0  0  0  0  0  0  0  0
   14.6613    8.7500    0.0000 H   0  0  0  0  0  0  0  0  0  0  0  0
   11.5263    9.5600    0.0000 H   0  0  0  0  0  0  0  0  0  0  0  0
    3.0781   -9.6426    0.0000 H   0  0  0  0  0  0  0  0  0  0  0  0
    3.4766   -8.9523    0.0000 H   0  0  0  0  0  0  0  0  0  0  0  0
    1.6900   -9.0231    0.0000 H   0  0  0  0  0  0  0  0  0  0  0  0
    1.4631   -9.8700    0.0000 H   0  0  0  0  0  0  0  0  0  0  0  0
    2.3100  -10.0969    0.0000 H   0  0  0  0  0  0  0  0  0  0  0  0
  8  1  1  1  0  0  0
  1 70  1  0  0  0  0
 10  2  1  1  0  0  0
  2 73  1  0  0  0  0
 12  3  1  6  0  0  0
  3 74  1  0  0  0  0
 14  4  1  1  0  0  0
  4 75  1  0  0  0  0
  5 20  1  0  0  0  0
  5 32  1  0  0  0  0
 25  6  1  1  0  0  0
  6 82  1  0  0  0  0
  7 32  2  0  0  0  0
  8  9  1  0  0  0  0
  8 11  1  0  0  0  0
  8 36  1  0  0  0  0
  9 10  1  0  0  0  0
  9 37  1  0  0  0  0
  9 38  1  0  0  0  0
 10 13  1  0  0  0  0
 10 39  1  0  0  0  0
 11 12  1  0  0  0  0
 11 40  1  0  0  0  0
 11 41  1  0  0  0  0
 12 15  1  0  0  0  0
 12 42  1  0  0  0  0
 13 14  1  0  0  0  0
 13 43  1  0  0  0  0
 13 44  1  0  0  0  0
 14 17  1  0  0  0  0
 14 45  1  0  0  0  0
 15 16  1  0  0  0  0
 15 46  1  0  0  0  0
 15 47  1  0  0  0  0
 16 18  1  0  0  0  0
 16 48  1  0  0  0  0
 16 49  1  0  0  0  0
 20 17  1  1  0  0  0
 17 50  1  0  0  0  0
 17 51  1  0  0  0  0
 18 19  1  0  0  0  0
 18 52  1  0  0  0  0
 18 53  1  0  0  0  0
 19 21  1  0  0  0  0
 19 54  1  0  0  0  0
 19 55  1  0  0  0  0
 20 25  1  0  0  0  0
 20 56  1  0  0  0  0
 21 22  1  0  0  0  0
 21 57  1  0  0  0  0
 21 58  1  0  0  0  0
 22 23  1  0  0  0  0
 22 59  1  0  0  0  0
 22 60  1  0  0  0  0
 23 24  1  0  0  0  0
 23 61  1  0  0  0  0
 23 62  1  0  0  0  0
 24 26  1  0  0  0  0
 24 63  1  0  0  0  0
 24 64  1  0  0  0  0
 25 30  1  0  0  0  0
 25 65  1  0  0  0  0
 26 27  1  0  0  0  0
 26 66  1  0  0  0  0
 26 67  1  0  0  0  0
 27 28  1  0  0  0  0
 27 68  1  0  0  0  0
 27 69  1  0  0  0  0
 28 29  1  0  0  0  0
 28 71  1  0  0  0  0
 28 72  1  0  0  0  0
 29 31  1  0  0  0  0
 29 76  1  0  0  0  0
 29 77  1  0  0  0  0
 30 33  2  0  0  0  0
 30 78  1  0  0  0  0
 31 34  1  0  0  0  0
 31 79  1  0  0  0  0
 31 80  1  0  0  0  0
 32 33  1  0  0  0  0
 33 81  1  0  0  0  0
 34 35  1  0  0  0  0
 34 83  1  0  0  0  0
 34 84  1  0  0  0  0
 35 85  1  0  0  0  0
 35 86  1  0  0  0  0
 35 87  1  0  0  0  0
M  END
> <PUBCHEM_COMPOUND_CID>
54585961

> <PUBCHEM_COMPOUND_CANONICALIZED>
1

> <PUBCHEM_CACTVS_COMPLEXITY>
553

> <PUBCHEM_CACTVS_HBOND_ACCEPTOR>
7

> <PUBCHEM_CACTVS_HBOND_DONOR>
5

> <PUBCHEM_CACTVS_ROTATABLE_BOND>
22

> <PUBCHEM_CACTVS_SUBSKEYS>
AAADcfB4OAAAAAAAAAAAAAAAAAAAAAAAAAAgAAAAAAAAAAAAAAAAGgAACAAACBSggAICCAAABgCIACDSCAAAAAAgAAAICAAAAEgBFAIAIQACUAAFwAALMYPA4KwAAAAAAAAAAAAAAAAAAAAAAAAAAAAAAA==

> <PUBCHEM_IUPAC_OPENEYE_NAME>
(2S,3S)-3-hydroxy-2-[(2S,4S,6S,8R)-2,4,6,8-tetrahydroxytricosyl]-2,3-dihydropyran-6-one

> <PUBCHEM_IUPAC_CAS_NAME>
(2S,3S)-3-hydroxy-2-[(2S,4S,6S,8R)-2,4,6,8-tetrahydroxytricosyl]-2,3-dihydropyran-6-one

> <PUBCHEM_IUPAC_NAME_MARKUP>
(2<I>S</I>,3<I>S</I>)-3-hydroxy-2-[(2<I>S</I>,4<I>S</I>,6<I>S</I>,8<I>R</I>)-2,4,6,8-tetrahydroxytricosyl]-2,3-dihydropyran-6-one

> <PUBCHEM_IUPAC_NAME>
(2S,3S)-3-hydroxy-2-[(2S,4S,6S,8R)-2,4,6,8-tetrahydroxytricosyl]-2,3-dihydropyran-6-one

> <PUBCHEM_IUPAC_SYSTEMATIC_NAME>
(2S,3S)-3-oxidanyl-2-[(2S,4S,6S,8R)-2,4,6,8-tetrakis(oxidanyl)tricosyl]-2,3-dihydropyran-6-one

> <PUBCHEM_IUPAC_TRADITIONAL_NAME>
(2S,3S)-3-hydroxy-2-[(2S,4S,6S,8R)-2,4,6,8-tetrahydroxytricosyl]-2,3-dihydropyran-6-one

> <PUBCHEM_IUPAC_INCHI>
InChI=1S/C28H52O7/c1-2-3-4-5-6-7-8-9-10-11-12-13-14-15-22(29)18-23(30)19-24(31)20-25(32)21-27-26(33)16-17-28(34)35-27/h16-17,22-27,29-33H,2-15,18-21H2,1H3/t22-,23+,24+,25+,26+,27+/m1/s1

> <PUBCHEM_IUPAC_INCHIKEY>
CVJWXRNBYKUGQI-AIFRIFMOSA-N

> <PUBCHEM_XLOGP3_AA>
6.3

> <PUBCHEM_EXACT_MASS>
500.37130399

> <PUBCHEM_MOLECULAR_FORMULA>
C28H52O7

> <PUBCHEM_MOLECULAR_WEIGHT>
500.7

> <PUBCHEM_OPENEYE_CAN_SMILES>
CCCCCCCCCCCCCCCC(CC(CC(CC(CC1C(C=CC(=O)O1)O)O)O)O)O

> <PUBCHEM_OPENEYE_ISO_SMILES>
CCCCCCCCCCCCCCC[C@H](C[C@@H](C[C@@H](C[C@@H](C[C@H]1[C@H](C=CC(=O)O1)O)O)O)O)O

> <PUBCHEM_CACTVS_TPSA>
127

> <PUBCHEM_MONOISOTOPIC_WEIGHT>
500.37130399

> <PUBCHEM_TOTAL_CHARGE>
0

> <PUBCHEM_HEAVY_ATOM_COUNT>
35

> <PUBCHEM_ATOM_DEF_STEREO_COUNT>
6

> <PUBCHEM_ATOM_UDEF_STEREO_COUNT>
0

> <PUBCHEM_BOND_DEF_STEREO_COUNT>
0

> <PUBCHEM_BOND_UDEF_STEREO_COUNT>
0

> <PUBCHEM_ISOTOPIC_ATOM_COUNT>
0

> <PUBCHEM_COMPONENT_COUNT>
1

> <PUBCHEM_CACTVS_TAUTO_COUNT>
-1

> <PUBCHEM_COORDINATE_TYPE>
1
5
255

> <PUBCHEM_BONDANNOTATIONS>
8  1  5
20  17  5
10  2  5
12  3  6
14  4  5
25  6  5

$$$$
