71764877
  -OEChem-05162309322D

 98 98  0     1  0  0  0  0  0999 V2000
    7.1962   -6.0000    0.0000 O   0  0  0  0  0  0  0  0  0  0  0  0
    9.7942   -4.5000    0.0000 O   0  0  0  0  0  0  0  0  0  0  0  0
   11.5263   -4.5000    0.0000 O   0  0  0  0  0  0  0  0  0  0  0  0
   13.2583   -4.5000    0.0000 O   0  0  0  0  0  0  0  0  0  0  0  0
   14.9904   -4.5000    0.0000 O   0  0  0  0  0  0  0  0  0  0  0  0
   17.5885   -6.0000    0.0000 O   0  0  0  0  0  0  0  0  0  0  0  0
    6.3301   -4.5000    0.0000 O   0  0  0  0  0  0  0  0  0  0  0  0
   19.3205   -6.0000    0.0000 O   0  0  0  0  0  0  0  0  0  0  0  0
    9.7942   -5.5000    0.0000 C   0  0  1  0  0  0  0  0  0  0  0  0
   10.6603   -6.0000    0.0000 C   0  0  0  0  0  0  0  0  0  0  0  0
   11.5263   -5.5000    0.0000 C   0  0  2  0  0  0  0  0  0  0  0  0
    8.9282   -6.0000    0.0000 C   0  0  0  0  0  0  0  0  0  0  0  0
    8.0622   -5.5000    0.0000 C   0  0  2  0  0  0  0  0  0  0  0  0
   12.3923   -6.0000    0.0000 C   0  0  0  0  0  0  0  0  0  0  0  0
   13.2583   -5.5000    0.0000 C   0  0  2  0  0  0  0  0  0  0  0  0
    8.0622   -4.5000    0.0000 C   0  0  0  0  0  0  0  0  0  0  0  0
   14.1244   -6.0000    0.0000 C   0  0  0  0  0  0  0  0  0  0  0  0
    7.1962   -4.0000    0.0000 C   0  0  0  0  0  0  0  0  0  0  0  0
   14.9904   -5.5000    0.0000 C   0  0  2  0  0  0  0  0  0  0  0  0
    7.1962   -3.0000    0.0000 C   0  0  0  0  0  0  0  0  0  0  0  0
    6.3301   -2.5000    0.0000 C   0  0  0  0  0  0  0  0  0  0  0  0
   15.8564   -6.0000    0.0000 C   0  0  0  0  0  0  0  0  0  0  0  0
    6.3301   -1.5000    0.0000 C   0  0  0  0  0  0  0  0  0  0  0  0
    5.4641   -1.0000    0.0000 C   0  0  0  0  0  0  0  0  0  0  0  0
   16.7224   -5.5000    0.0000 C   0  0  1  0  0  0  0  0  0  0  0  0
    5.4641    0.0000    0.0000 C   0  0  0  0  0  0  0  0  0  0  0  0
    4.5981    0.5000    0.0000 C   0  0  0  0  0  0  0  0  0  0  0  0
    4.5981    1.5000    0.0000 C   0  0  0  0  0  0  0  0  0  0  0  0
   16.7224   -4.5000    0.0000 C   0  0  0  0  0  0  0  0  0  0  0  0
    3.7320    2.0000    0.0000 C   0  0  0  0  0  0  0  0  0  0  0  0
    3.7320    3.0000    0.0000 C   0  0  0  0  0  0  0  0  0  0  0  0
    2.8660    3.5000    0.0000 C   0  0  0  0  0  0  0  0  0  0  0  0
   17.5885   -4.0000    0.0000 C   0  0  0  0  0  0  0  0  0  0  0  0
    6.3301   -5.5000    0.0000 C   0  0  0  0  0  0  0  0  0  0  0  0
    2.8660    4.5000    0.0000 C   0  0  0  0  0  0  0  0  0  0  0  0
   18.4545   -5.5000    0.0000 C   0  0  0  0  0  0  0  0  0  0  0  0
   18.4545   -4.5000    0.0000 C   0  0  0  0  0  0  0  0  0  0  0  0
    2.0000    5.0000    0.0000 C   0  0  0  0  0  0  0  0  0  0  0  0
    5.4641   -6.0000    0.0000 C   0  0  0  0  0  0  0  0  0  0  0  0
    2.0000    6.0000    0.0000 C   0  0  0  0  0  0  0  0  0  0  0  0
    9.2573   -5.1900    0.0000 H   0  0  0  0  0  0  0  0  0  0  0  0
   10.2617   -6.4750    0.0000 H   0  0  0  0  0  0  0  0  0  0  0  0
   11.0588   -6.4750    0.0000 H   0  0  0  0  0  0  0  0  0  0  0  0
   12.0632   -5.1900    0.0000 H   0  0  0  0  0  0  0  0  0  0  0  0
    8.5297   -6.4750    0.0000 H   0  0  0  0  0  0  0  0  0  0  0  0
    9.3267   -6.4750    0.0000 H   0  0  0  0  0  0  0  0  0  0  0  0
    8.0622   -6.1200    0.0000 H   0  0  0  0  0  0  0  0  0  0  0  0
   11.9938   -6.4750    0.0000 H   0  0  0  0  0  0  0  0  0  0  0  0
   12.7908   -6.4750    0.0000 H   0  0  0  0  0  0  0  0  0  0  0  0
   13.7953   -5.1900    0.0000 H   0  0  0  0  0  0  0  0  0  0  0  0
    8.6728   -4.6077    0.0000 H   0  0  0  0  0  0  0  0  0  0  0  0
    8.2742   -3.9174    0.0000 H   0  0  0  0  0  0  0  0  0  0  0  0
   13.7258   -6.4750    0.0000 H   0  0  0  0  0  0  0  0  0  0  0  0
   14.5229   -6.4750    0.0000 H   0  0  0  0  0  0  0  0  0  0  0  0
    6.5856   -3.8923    0.0000 H   0  0  0  0  0  0  0  0  0  0  0  0
    6.9841   -4.5826    0.0000 H   0  0  0  0  0  0  0  0  0  0  0  0
   15.5273   -5.1900    0.0000 H   0  0  0  0  0  0  0  0  0  0  0  0
    7.8067   -3.1077    0.0000 H   0  0  0  0  0  0  0  0  0  0  0  0
    7.4082   -2.4174    0.0000 H   0  0  0  0  0  0  0  0  0  0  0  0
    5.7196   -2.3923    0.0000 H   0  0  0  0  0  0  0  0  0  0  0  0
    6.1181   -3.0826    0.0000 H   0  0  0  0  0  0  0  0  0  0  0  0
   15.4579   -6.4750    0.0000 H   0  0  0  0  0  0  0  0  0  0  0  0
   16.2549   -6.4750    0.0000 H   0  0  0  0  0  0  0  0  0  0  0  0
    6.9407   -1.6077    0.0000 H   0  0  0  0  0  0  0  0  0  0  0  0
    6.5422   -0.9174    0.0000 H   0  0  0  0  0  0  0  0  0  0  0  0
    4.8535   -0.8923    0.0000 H   0  0  0  0  0  0  0  0  0  0  0  0
    5.2520   -1.5826    0.0000 H   0  0  0  0  0  0  0  0  0  0  0  0
   16.7224   -6.1200    0.0000 H   0  0  0  0  0  0  0  0  0  0  0  0
    6.0747   -0.1077    0.0000 H   0  0  0  0  0  0  0  0  0  0  0  0
    5.6762    0.5826    0.0000 H   0  0  0  0  0  0  0  0  0  0  0  0
    3.9875    0.6077    0.0000 H   0  0  0  0  0  0  0  0  0  0  0  0
    4.3860   -0.0826    0.0000 H   0  0  0  0  0  0  0  0  0  0  0  0
    5.2087    1.3923    0.0000 H   0  0  0  0  0  0  0  0  0  0  0  0
    4.8101    2.0826    0.0000 H   0  0  0  0  0  0  0  0  0  0  0  0
    9.2573   -4.1900    0.0000 H   0  0  0  0  0  0  0  0  0  0  0  0
   16.5104   -3.9174    0.0000 H   0  0  0  0  0  0  0  0  0  0  0  0
   16.1119   -4.6077    0.0000 H   0  0  0  0  0  0  0  0  0  0  0  0
   10.9893   -4.1900    0.0000 H   0  0  0  0  0  0  0  0  0  0  0  0
    3.1215    2.1077    0.0000 H   0  0  0  0  0  0  0  0  0  0  0  0
    3.5200    1.4174    0.0000 H   0  0  0  0  0  0  0  0  0  0  0  0
   12.7214   -4.1900    0.0000 H   0  0  0  0  0  0  0  0  0  0  0  0
    4.3426    2.8923    0.0000 H   0  0  0  0  0  0  0  0  0  0  0  0
    3.9441    3.5826    0.0000 H   0  0  0  0  0  0  0  0  0  0  0  0
   14.4534   -4.1900    0.0000 H   0  0  0  0  0  0  0  0  0  0  0  0
    2.2554    3.6077    0.0000 H   0  0  0  0  0  0  0  0  0  0  0  0
    2.6540    2.9174    0.0000 H   0  0  0  0  0  0  0  0  0  0  0  0
   17.5885   -3.3800    0.0000 H   0  0  0  0  0  0  0  0  0  0  0  0
    3.4766    4.3923    0.0000 H   0  0  0  0  0  0  0  0  0  0  0  0
    3.0781    5.0826    0.0000 H   0  0  0  0  0  0  0  0  0  0  0  0
   18.9914   -4.1900    0.0000 H   0  0  0  0  0  0  0  0  0  0  0  0
    1.3894    5.1077    0.0000 H   0  0  0  0  0  0  0  0  0  0  0  0
    1.7880    4.4174    0.0000 H   0  0  0  0  0  0  0  0  0  0  0  0
    5.1541   -5.4631    0.0000 H   0  0  0  0  0  0  0  0  0  0  0  0
    4.9272   -6.3100    0.0000 H   0  0  0  0  0  0  0  0  0  0  0  0
    5.7741   -6.5369    0.0000 H   0  0  0  0  0  0  0  0  0  0  0  0
    2.6200    6.0000    0.0000 H   0  0  0  0  0  0  0  0  0  0  0  0
    2.0000    6.6200    0.0000 H   0  0  0  0  0  0  0  0  0  0  0  0
    1.3800    6.0000    0.0000 H   0  0  0  0  0  0  0  0  0  0  0  0
 13  1  1  1  0  0  0
  1 34  1  0  0  0  0
  9  2  1  1  0  0  0
  2 75  1  0  0  0  0
 11  3  1  1  0  0  0
  3 78  1  0  0  0  0
 15  4  1  1  0  0  0
  4 81  1  0  0  0  0
 19  5  1  1  0  0  0
  5 84  1  0  0  0  0
  6 25  1  0  0  0  0
  6 36  1  0  0  0  0
  7 34  2  0  0  0  0
  8 36  2  0  0  0  0
  9 10  1  0  0  0  0
  9 12  1  0  0  0  0
  9 41  1  0  0  0  0
 10 11  1  0  0  0  0
 10 42  1  0  0  0  0
 10 43  1  0  0  0  0
 11 14  1  0  0  0  0
 11 44  1  0  0  0  0
 12 13  1  0  0  0  0
 12 45  1  0  0  0  0
 12 46  1  0  0  0  0
 13 16  1  0  0  0  0
 13 47  1  0  0  0  0
 14 15  1  0  0  0  0
 14 48  1  0  0  0  0
 14 49  1  0  0  0  0
 15 17  1  0  0  0  0
 15 50  1  0  0  0  0
 16 18  1  0  0  0  0
 16 51  1  0  0  0  0
 16 52  1  0  0  0  0
 17 19  1  0  0  0  0
 17 53  1  0  0  0  0
 17 54  1  0  0  0  0
 18 20  1  0  0  0  0
 18 55  1  0  0  0  0
 18 56  1  0  0  0  0
 19 22  1  0  0  0  0
 19 57  1  0  0  0  0
 20 21  1  0  0  0  0
 20 58  1  0  0  0  0
 20 59  1  0  0  0  0
 21 23  1  0  0  0  0
 21 60  1  0  0  0  0
 21 61  1  0  0  0  0
 25 22  1  1  0  0  0
 22 62  1  0  0  0  0
 22 63  1  0  0  0  0
 23 24  1  0  0  0  0
 23 64  1  0  0  0  0
 23 65  1  0  0  0  0
 24 26  1  0  0  0  0
 24 66  1  0  0  0  0
 24 67  1  0  0  0  0
 25 29  1  0  0  0  0
 25 68  1  0  0  0  0
 26 27  1  0  0  0  0
 26 69  1  0  0  0  0
 26 70  1  0  0  0  0
 27 28  1  0  0  0  0
 27 71  1  0  0  0  0
 27 72  1  0  0  0  0
 28 30  1  0  0  0  0
 28 73  1  0  0  0  0
 28 74  1  0  0  0  0
 29 33  1  0  0  0  0
 29 76  1  0  0  0  0
 29 77  1  0  0  0  0
 30 31  1  0  0  0  0
 30 79  1  0  0  0  0
 30 80  1  0  0  0  0
 31 32  1  0  0  0  0
 31 82  1  0  0  0  0
 31 83  1  0  0  0  0
 32 35  1  0  0  0  0
 32 85  1  0  0  0  0
 32 86  1  0  0  0  0
 33 37  2  0  0  0  0
 33 87  1  0  0  0  0
 34 39  1  0  0  0  0
 35 38  1  0  0  0  0
 35 88  1  0  0  0  0
 35 89  1  0  0  0  0
 36 37  1  0  0  0  0
 37 90  1  0  0  0  0
 38 40  1  0  0  0  0
 38 91  1  0  0  0  0
 38 92  1  0  0  0  0
 39 93  1  0  0  0  0
 39 94  1  0  0  0  0
 39 95  1  0  0  0  0
 40 96  1  0  0  0  0
 40 97  1  0  0  0  0
 40 98  1  0  0  0  0
M  END
> <PUBCHEM_COMPOUND_CID>
71764877

> <PUBCHEM_COMPOUND_CANONICALIZED>
1

> <PUBCHEM_CACTVS_COMPLEXITY>
682

> <PUBCHEM_CACTVS_HBOND_ACCEPTOR>
8

> <PUBCHEM_CACTVS_HBOND_DONOR>
4

> <PUBCHEM_CACTVS_ROTATABLE_BOND>
26

> <PUBCHEM_CACTVS_SUBSKEYS>
AAADcfB8PAAAAAAAAAAAAAAAAAAAAAAAAAAgAAAAAAAAAAAAAAAAGgAACAAACBSggAICCAAABgCIACDSCAAAAAAgAAAICAAAAEgAFAIAIQACUAAFwAAIIYOA4KwAAAAAAAAAAAAAAAAAAAAAAAAAAAAAAA==

> <PUBCHEM_IUPAC_OPENEYE_NAME>
[(1S)-1-[(2S,4S,6R,8R)-2,4,6,8-tetrahydroxy-9-[(2R)-6-oxo-2,3-dihydropyran-2-yl]nonyl]hexadecyl] acetate

> <PUBCHEM_IUPAC_CAS_NAME>
acetic acid [(2R,4R,6S,8S,10S)-2,4,6,8-tetrahydroxy-1-[(2R)-6-oxo-2,3-dihydropyran-2-yl]pentacosan-10-yl] ester

> <PUBCHEM_IUPAC_NAME_MARKUP>
[(2<I>R</I>,4<I>R</I>,6<I>S</I>,8<I>S</I>,10<I>S</I>)-2,4,6,8-tetrahydroxy-1-[(2<I>R</I>)-6-oxo-2,3-dihydropyran-2-yl]pentacosan-10-yl] acetate

> <PUBCHEM_IUPAC_NAME>
[(2R,4R,6S,8S,10S)-2,4,6,8-tetrahydroxy-1-[(2R)-6-oxo-2,3-dihydropyran-2-yl]pentacosan-10-yl] acetate

> <PUBCHEM_IUPAC_SYSTEMATIC_NAME>
[(2R,4R,6S,8S,10S)-2,4,6,8-tetrakis(oxidanyl)-1-[(2R)-6-oxidanylidene-2,3-dihydropyran-2-yl]pentacosan-10-yl] ethanoate

> <PUBCHEM_IUPAC_TRADITIONAL_NAME>
acetic acid [(1S)-1-[(2S,4S,6R,8R)-2,4,6,8-tetrahydroxy-9-[(2R)-6-keto-2,3-dihydropyran-2-yl]nonyl]hexadecyl] ester

> <PUBCHEM_IUPAC_INCHI>
InChI=1S/C32H58O8/c1-3-4-5-6-7-8-9-10-11-12-13-14-15-17-30(39-25(2)33)23-28(36)21-26(34)20-27(35)22-29(37)24-31-18-16-19-32(38)40-31/h16,19,26-31,34-37H,3-15,17-18,20-24H2,1-2H3/t26-,27+,28-,29+,30-,31+/m0/s1

> <PUBCHEM_IUPAC_INCHIKEY>
JUDSGWKIMNPKNH-XSFYONRBSA-N

> <PUBCHEM_XLOGP3_AA>
7.8

> <PUBCHEM_EXACT_MASS>
570.41316880

> <PUBCHEM_MOLECULAR_FORMULA>
C32H58O8

> <PUBCHEM_MOLECULAR_WEIGHT>
570.8

> <PUBCHEM_OPENEYE_CAN_SMILES>
CCCCCCCCCCCCCCCC(CC(CC(CC(CC(CC1CC=CC(=O)O1)O)O)O)O)OC(=O)C

> <PUBCHEM_OPENEYE_ISO_SMILES>
CCCCCCCCCCCCCCC[C@@H](C[C@H](C[C@H](C[C@H](C[C@H](C[C@H]1CC=CC(=O)O1)O)O)O)O)OC(=O)C

> <PUBCHEM_CACTVS_TPSA>
134

> <PUBCHEM_MONOISOTOPIC_WEIGHT>
570.41316880

> <PUBCHEM_TOTAL_CHARGE>
0

> <PUBCHEM_HEAVY_ATOM_COUNT>
40

> <PUBCHEM_ATOM_DEF_STEREO_COUNT>
6

> <PUBCHEM_ATOM_UDEF_STEREO_COUNT>
0

> <PUBCHEM_BOND_DEF_STEREO_COUNT>
0

> <PUBCHEM_BOND_UDEF_STEREO_COUNT>
0

> <PUBCHEM_ISOTOPIC_ATOM_COUNT>
0

> <PUBCHEM_COMPONENT_COUNT>
1

> <PUBCHEM_CACTVS_TAUTO_COUNT>
-1

> <PUBCHEM_COORDINATE_TYPE>
1
5
255

> <PUBCHEM_BONDANNOTATIONS>
13  1  5
9  2  5
25  22  5
11  3  5
15  4  5
19  5  5

$$$$
