54581067
  -OEChem-05162309452D

111111  0     1  0  0  0  0  0999 V2000
   10.3312    7.4400    0.0000 O   0  0  0  0  0  0  0  0  0  0  0  0
    9.4651    5.9400    0.0000 O   0  0  0  0  0  0  0  0  0  0  0  0
   11.1972    8.9400    0.0000 O   0  0  0  0  0  0  0  0  0  0  0  0
   12.0632   10.4400    0.0000 O   0  0  0  0  0  0  0  0  0  0  0  0
   10.3312   12.4400    0.0000 O   0  0  0  0  0  0  0  0  0  0  0  0
   13.7953   10.4400    0.0000 O   0  0  0  0  0  0  0  0  0  0  0  0
    9.4651    7.9400    0.0000 C   0  0  1  0  0  0  0  0  0  0  0  0
    8.5991    7.4400    0.0000 C   0  0  0  0  0  0  0  0  0  0  0  0
    8.5991    6.4400    0.0000 C   0  0  1  0  0  0  0  0  0  0  0  0
    9.4651    8.9400    0.0000 C   0  0  0  0  0  0  0  0  0  0  0  0
    7.7331    5.9400    0.0000 C   0  0  0  0  0  0  0  0  0  0  0  0
   10.3312    9.4400    0.0000 C   0  0  1  0  0  0  0  0  0  0  0  0
    7.7331    4.9400    0.0000 C   0  0  0  0  0  0  0  0  0  0  0  0
   10.3312   10.4400    0.0000 C   0  0  0  0  0  0  0  0  0  0  0  0
    6.8671    4.4400    0.0000 C   0  0  0  0  0  0  0  0  0  0  0  0
    6.8671    3.4400    0.0000 C   0  0  0  0  0  0  0  0  0  0  0  0
   11.1972   10.9400    0.0000 C   0  0  1  0  0  0  0  0  0  0  0  0
    6.0010    2.9400    0.0000 C   0  0  0  0  0  0  0  0  0  0  0  0
    6.0010    1.9400    0.0000 C   0  0  0  0  0  0  0  0  0  0  0  0
    5.1350    1.4400    0.0000 C   0  0  0  0  0  0  0  0  0  0  0  0
   11.1972   11.9400    0.0000 C   0  0  2  0  0  0  0  0  0  0  0  0
    5.1350    0.4400    0.0000 C   0  0  0  0  0  0  0  0  0  0  0  0
    4.2690   -0.0600    0.0000 C   0  0  0  0  0  0  0  0  0  0  0  0
    4.2690   -1.0600    0.0000 C   0  0  0  0  0  0  0  0  0  0  0  0
    5.1350   -7.5600    0.0000 C   0  0  0  0  0  0  0  0  0  0  0  0
    5.1350   -8.5600    0.0000 C   0  0  0  0  0  0  0  0  0  0  0  0
    3.4030   -1.5600    0.0000 C   0  0  0  0  0  0  0  0  0  0  0  0
   12.0632   12.4400    0.0000 C   0  0  0  0  0  0  0  0  0  0  0  0
    4.2690   -7.0600    0.0000 C   0  0  0  0  0  0  0  0  0  0  0  0
    6.0010   -9.0600    0.0000 C   0  0  0  0  0  0  0  0  0  0  0  0
    4.2690   -6.0600    0.0000 C   0  0  0  0  0  0  0  0  0  0  0  0
    6.0010  -10.0600    0.0000 C   0  0  0  0  0  0  0  0  0  0  0  0
    3.4030   -5.5600    0.0000 C   0  0  0  0  0  0  0  0  0  0  0  0
    6.8671  -10.5600    0.0000 C   0  0  0  0  0  0  0  0  0  0  0  0
    3.4030   -2.5600    0.0000 C   0  0  0  0  0  0  0  0  0  0  0  0
   12.9292   10.9400    0.0000 C   0  0  0  0  0  0  0  0  0  0  0  0
   12.9292   11.9400    0.0000 C   0  0  0  0  0  0  0  0  0  0  0  0
    3.4030   -4.5600    0.0000 C   0  0  0  0  0  0  0  0  0  0  0  0
    6.8671  -11.5600    0.0000 C   0  0  0  0  0  0  0  0  0  0  0  0
    2.5369   -3.0600    0.0000 C   0  0  0  0  0  0  0  0  0  0  0  0
    2.5369   -4.0600    0.0000 C   0  0  0  0  0  0  0  0  0  0  0  0
    7.7331  -12.0600    0.0000 C   0  0  0  0  0  0  0  0  0  0  0  0
    7.7331  -13.0600    0.0000 C   0  0  0  0  0  0  0  0  0  0  0  0
   10.0021    8.2500    0.0000 H   0  0  0  0  0  0  0  0  0  0  0  0
    8.3871    8.0226    0.0000 H   0  0  0  0  0  0  0  0  0  0  0  0
    7.9885    7.3323    0.0000 H   0  0  0  0  0  0  0  0  0  0  0  0
    8.5991    5.8200    0.0000 H   0  0  0  0  0  0  0  0  0  0  0  0
    9.2531    9.5226    0.0000 H   0  0  0  0  0  0  0  0  0  0  0  0
    8.8546    8.8323    0.0000 H   0  0  0  0  0  0  0  0  0  0  0  0
    7.5210    6.5226    0.0000 H   0  0  0  0  0  0  0  0  0  0  0  0
    7.1225    5.8323    0.0000 H   0  0  0  0  0  0  0  0  0  0  0  0
   10.8681    9.7500    0.0000 H   0  0  0  0  0  0  0  0  0  0  0  0
    7.9451    4.3574    0.0000 H   0  0  0  0  0  0  0  0  0  0  0  0
    8.3437    5.0477    0.0000 H   0  0  0  0  0  0  0  0  0  0  0  0
   10.1191   11.0226    0.0000 H   0  0  0  0  0  0  0  0  0  0  0  0
    9.7206   10.3323    0.0000 H   0  0  0  0  0  0  0  0  0  0  0  0
    6.6550    5.0226    0.0000 H   0  0  0  0  0  0  0  0  0  0  0  0
    6.2565    4.3323    0.0000 H   0  0  0  0  0  0  0  0  0  0  0  0
    7.0791    2.8574    0.0000 H   0  0  0  0  0  0  0  0  0  0  0  0
    7.4776    3.5477    0.0000 H   0  0  0  0  0  0  0  0  0  0  0  0
   11.1972   10.3200    0.0000 H   0  0  0  0  0  0  0  0  0  0  0  0
    5.7890    3.5226    0.0000 H   0  0  0  0  0  0  0  0  0  0  0  0
    5.3905    2.8323    0.0000 H   0  0  0  0  0  0  0  0  0  0  0  0
    6.2131    1.3574    0.0000 H   0  0  0  0  0  0  0  0  0  0  0  0
    6.6116    2.0477    0.0000 H   0  0  0  0  0  0  0  0  0  0  0  0
    4.9230    2.0226    0.0000 H   0  0  0  0  0  0  0  0  0  0  0  0
    4.5244    1.3323    0.0000 H   0  0  0  0  0  0  0  0  0  0  0  0
   10.6603   11.6300    0.0000 H   0  0  0  0  0  0  0  0  0  0  0  0
    5.3471   -0.1426    0.0000 H   0  0  0  0  0  0  0  0  0  0  0  0
    5.7456    0.5477    0.0000 H   0  0  0  0  0  0  0  0  0  0  0  0
    4.0569    0.5226    0.0000 H   0  0  0  0  0  0  0  0  0  0  0  0
    3.6584   -0.1677    0.0000 H   0  0  0  0  0  0  0  0  0  0  0  0
   10.3312    6.8200    0.0000 H   0  0  0  0  0  0  0  0  0  0  0  0
    4.4810   -1.6426    0.0000 H   0  0  0  0  0  0  0  0  0  0  0  0
    4.8796   -0.9523    0.0000 H   0  0  0  0  0  0  0  0  0  0  0  0
    9.4651    5.3200    0.0000 H   0  0  0  0  0  0  0  0  0  0  0  0
   11.1972    8.3200    0.0000 H   0  0  0  0  0  0  0  0  0  0  0  0
    4.5244   -8.4523    0.0000 H   0  0  0  0  0  0  0  0  0  0  0  0
    4.9230   -9.1426    0.0000 H   0  0  0  0  0  0  0  0  0  0  0  0
    5.7456   -7.6677    0.0000 H   0  0  0  0  0  0  0  0  0  0  0  0
    5.3471   -6.9774    0.0000 H   0  0  0  0  0  0  0  0  0  0  0  0
    3.1909   -0.9774    0.0000 H   0  0  0  0  0  0  0  0  0  0  0  0
    2.7924   -1.6677    0.0000 H   0  0  0  0  0  0  0  0  0  0  0  0
   12.0632   13.0600    0.0000 H   0  0  0  0  0  0  0  0  0  0  0  0
    3.6584   -6.9523    0.0000 H   0  0  0  0  0  0  0  0  0  0  0  0
    4.0569   -7.6426    0.0000 H   0  0  0  0  0  0  0  0  0  0  0  0
    6.6116   -9.1677    0.0000 H   0  0  0  0  0  0  0  0  0  0  0  0
    6.2131   -8.4774    0.0000 H   0  0  0  0  0  0  0  0  0  0  0  0
    4.8796   -6.1677    0.0000 H   0  0  0  0  0  0  0  0  0  0  0  0
    4.4810   -5.4774    0.0000 H   0  0  0  0  0  0  0  0  0  0  0  0
    5.3905   -9.9523    0.0000 H   0  0  0  0  0  0  0  0  0  0  0  0
    5.7890  -10.6426    0.0000 H   0  0  0  0  0  0  0  0  0  0  0  0
    2.7924   -5.4523    0.0000 H   0  0  0  0  0  0  0  0  0  0  0  0
    3.1909   -6.1426    0.0000 H   0  0  0  0  0  0  0  0  0  0  0  0
    7.4776  -10.6677    0.0000 H   0  0  0  0  0  0  0  0  0  0  0  0
    7.0791   -9.9774    0.0000 H   0  0  0  0  0  0  0  0  0  0  0  0
    3.6150   -3.1426    0.0000 H   0  0  0  0  0  0  0  0  0  0  0  0
    4.0135   -2.4523    0.0000 H   0  0  0  0  0  0  0  0  0  0  0  0
   13.4662   12.2500    0.0000 H   0  0  0  0  0  0  0  0  0  0  0  0
   10.3312   13.0600    0.0000 H   0  0  0  0  0  0  0  0  0  0  0  0
    4.0135   -4.6677    0.0000 H   0  0  0  0  0  0  0  0  0  0  0  0
    3.6150   -3.9774    0.0000 H   0  0  0  0  0  0  0  0  0  0  0  0
    6.2565  -11.4523    0.0000 H   0  0  0  0  0  0  0  0  0  0  0  0
    6.6550  -12.1426    0.0000 H   0  0  0  0  0  0  0  0  0  0  0  0
    2.0000   -2.7500    0.0000 H   0  0  0  0  0  0  0  0  0  0  0  0
    2.0000   -4.3700    0.0000 H   0  0  0  0  0  0  0  0  0  0  0  0
    8.3437  -12.1677    0.0000 H   0  0  0  0  0  0  0  0  0  0  0  0
    7.9451  -11.4774    0.0000 H   0  0  0  0  0  0  0  0  0  0  0  0
    7.1131  -13.0600    0.0000 H   0  0  0  0  0  0  0  0  0  0  0  0
    7.7331  -13.6800    0.0000 H   0  0  0  0  0  0  0  0  0  0  0  0
    8.3531  -13.0600    0.0000 H   0  0  0  0  0  0  0  0  0  0  0  0
  7  1  1  1  0  0  0
  1 73  1  0  0  0  0
  9  2  1  6  0  0  0
  2 76  1  0  0  0  0
 12  3  1  1  0  0  0
  3 77  1  0  0  0  0
  4 17  1  0  0  0  0
  4 36  1  0  0  0  0
 21  5  1  1  0  0  0
  5100  1  0  0  0  0
  6 36  2  0  0  0  0
  7  8  1  0  0  0  0
  7 10  1  0  0  0  0
  7 44  1  0  0  0  0
  8  9  1  0  0  0  0
  8 45  1  0  0  0  0
  8 46  1  0  0  0  0
  9 11  1  0  0  0  0
  9 47  1  0  0  0  0
 10 12  1  0  0  0  0
 10 48  1  0  0  0  0
 10 49  1  0  0  0  0
 11 13  1  0  0  0  0
 11 50  1  0  0  0  0
 11 51  1  0  0  0  0
 12 14  1  0  0  0  0
 12 52  1  0  0  0  0
 13 15  1  0  0  0  0
 13 53  1  0  0  0  0
 13 54  1  0  0  0  0
 17 14  1  1  0  0  0
 14 55  1  0  0  0  0
 14 56  1  0  0  0  0
 15 16  1  0  0  0  0
 15 57  1  0  0  0  0
 15 58  1  0  0  0  0
 16 18  1  0  0  0  0
 16 59  1  0  0  0  0
 16 60  1  0  0  0  0
 17 21  1  0  0  0  0
 17 61  1  0  0  0  0
 18 19  1  0  0  0  0
 18 62  1  0  0  0  0
 18 63  1  0  0  0  0
 19 20  1  0  0  0  0
 19 64  1  0  0  0  0
 19 65  1  0  0  0  0
 20 22  1  0  0  0  0
 20 66  1  0  0  0  0
 20 67  1  0  0  0  0
 21 28  1  0  0  0  0
 21 68  1  0  0  0  0
 22 23  1  0  0  0  0
 22 69  1  0  0  0  0
 22 70  1  0  0  0  0
 23 24  1  0  0  0  0
 23 71  1  0  0  0  0
 23 72  1  0  0  0  0
 24 27  1  0  0  0  0
 24 74  1  0  0  0  0
 24 75  1  0  0  0  0
 25 26  1  0  0  0  0
 25 29  1  0  0  0  0
 25 80  1  0  0  0  0
 25 81  1  0  0  0  0
 26 30  1  0  0  0  0
 26 78  1  0  0  0  0
 26 79  1  0  0  0  0
 27 35  1  0  0  0  0
 27 82  1  0  0  0  0
 27 83  1  0  0  0  0
 28 37  2  0  0  0  0
 28 84  1  0  0  0  0
 29 31  1  0  0  0  0
 29 85  1  0  0  0  0
 29 86  1  0  0  0  0
 30 32  1  0  0  0  0
 30 87  1  0  0  0  0
 30 88  1  0  0  0  0
 31 33  1  0  0  0  0
 31 89  1  0  0  0  0
 31 90  1  0  0  0  0
 32 34  1  0  0  0  0
 32 91  1  0  0  0  0
 32 92  1  0  0  0  0
 33 38  1  0  0  0  0
 33 93  1  0  0  0  0
 33 94  1  0  0  0  0
 34 39  1  0  0  0  0
 34 95  1  0  0  0  0
 34 96  1  0  0  0  0
 35 40  1  0  0  0  0
 35 97  1  0  0  0  0
 35 98  1  0  0  0  0
 36 37  1  0  0  0  0
 37 99  1  0  0  0  0
 38 41  1  0  0  0  0
 38101  1  0  0  0  0
 38102  1  0  0  0  0
 39 42  1  0  0  0  0
 39103  1  0  0  0  0
 39104  1  0  0  0  0
 40 41  2  0  0  0  0
 40105  1  0  0  0  0
 41106  1  0  0  0  0
 42 43  1  0  0  0  0
 42107  1  0  0  0  0
 42108  1  0  0  0  0
 43109  1  0  0  0  0
 43110  1  0  0  0  0
 43111  1  0  0  0  0
M  END
> <PUBCHEM_COMPOUND_CID>
54581067

> <PUBCHEM_COMPOUND_CANONICALIZED>
1

> <PUBCHEM_CACTVS_COMPLEXITY>
693

> <PUBCHEM_CACTVS_HBOND_ACCEPTOR>
6

> <PUBCHEM_CACTVS_HBOND_DONOR>
4

> <PUBCHEM_CACTVS_ROTATABLE_BOND>
30

> <PUBCHEM_CACTVS_SUBSKEYS>
AAADcfB8OAAAAAAAAAAAAAAAAAAAAAAAAAAgAAAAAAAAAAAAAAAAGgAACAAACBSggAICCAAABgCIACDSCAAAAAAgAAAICAAAAEgBFAIAIQACUAAFwAALMYPA4KwAAAAAAAAAAAAAAAAAAAAAAAAAAAAAAA==

> <PUBCHEM_IUPAC_OPENEYE_NAME>
(2S,3S)-3-hydroxy-2-[(Z,2S,4S,6R)-2,4,6-trihydroxydotriacont-19-enyl]-2,3-dihydropyran-6-one

> <PUBCHEM_IUPAC_CAS_NAME>
(2S,3S)-3-hydroxy-2-[(Z,2S,4S,6R)-2,4,6-trihydroxydotriacont-19-enyl]-2,3-dihydropyran-6-one

> <PUBCHEM_IUPAC_NAME_MARKUP>
(2<I>S</I>,3<I>S</I>)-3-hydroxy-2-[(<I>Z</I>,2<I>S</I>,4<I>S</I>,6<I>R</I>)-2,4,6-trihydroxydotriacont-19-enyl]-2,3-dihydropyran-6-one

> <PUBCHEM_IUPAC_NAME>
(2S,3S)-3-hydroxy-2-[(Z,2S,4S,6R)-2,4,6-trihydroxydotriacont-19-enyl]-2,3-dihydropyran-6-one

> <PUBCHEM_IUPAC_SYSTEMATIC_NAME>
(2S,3S)-3-oxidanyl-2-[(Z,2S,4S,6R)-2,4,6-tris(oxidanyl)dotriacont-19-enyl]-2,3-dihydropyran-6-one

> <PUBCHEM_IUPAC_TRADITIONAL_NAME>
(2S,3S)-3-hydroxy-2-[(Z,2S,4S,6R)-2,4,6-trihydroxydotriacont-19-enyl]-2,3-dihydropyran-6-one

> <PUBCHEM_IUPAC_INCHI>
InChI=1S/C37H68O6/c1-2-3-4-5-6-7-8-9-10-11-12-13-14-15-16-17-18-19-20-21-22-23-24-25-26-32(38)29-33(39)30-34(40)31-36-35(41)27-28-37(42)43-36/h13-14,27-28,32-36,38-41H,2-12,15-26,29-31H2,1H3/b14-13-/t32-,33+,34+,35+,36+/m1/s1

> <PUBCHEM_IUPAC_INCHIKEY>
OCYDNBMSPUSFAD-ZLQLLNQHSA-N

> <PUBCHEM_XLOGP3_AA>
11.6

> <PUBCHEM_EXACT_MASS>
608.50158988

> <PUBCHEM_MOLECULAR_FORMULA>
C37H68O6

> <PUBCHEM_MOLECULAR_WEIGHT>
608.9

> <PUBCHEM_OPENEYE_CAN_SMILES>
CCCCCCCCCCCCC=CCCCCCCCCCCCCC(CC(CC(CC1C(C=CC(=O)O1)O)O)O)O

> <PUBCHEM_OPENEYE_ISO_SMILES>
CCCCCCCCCCCC/C=C\CCCCCCCCCCCC[C@H](C[C@@H](C[C@@H](C[C@H]1[C@H](C=CC(=O)O1)O)O)O)O

> <PUBCHEM_CACTVS_TPSA>
107

> <PUBCHEM_MONOISOTOPIC_WEIGHT>
608.50158988

> <PUBCHEM_TOTAL_CHARGE>
0

> <PUBCHEM_HEAVY_ATOM_COUNT>
43

> <PUBCHEM_ATOM_DEF_STEREO_COUNT>
5

> <PUBCHEM_ATOM_UDEF_STEREO_COUNT>
0

> <PUBCHEM_BOND_DEF_STEREO_COUNT>
1

> <PUBCHEM_BOND_UDEF_STEREO_COUNT>
0

> <PUBCHEM_ISOTOPIC_ATOM_COUNT>
0

> <PUBCHEM_COMPONENT_COUNT>
1

> <PUBCHEM_CACTVS_TAUTO_COUNT>
-1

> <PUBCHEM_COORDINATE_TYPE>
1
5
255

> <PUBCHEM_BONDANNOTATIONS>
7  1  5
17  14  5
9  2  6
12  3  5
21  5  5

$$$$
