71761758
  -OEChem-05162309322D

 93 93  0     1  0  0  0  0  0999 V2000
   18.4545    0.5000    0.0000 O   0  0  0  0  0  0  0  0  0  0  0  0
   16.7224    0.5000    0.0000 O   0  0  0  0  0  0  0  0  0  0  0  0
   20.1865    0.5000    0.0000 O   0  0  0  0  0  0  0  0  0  0  0  0
   14.9904    0.5000    0.0000 O   0  0  0  0  0  0  0  0  0  0  0  0
   21.9186    0.5000    0.0000 O   0  0  0  0  0  0  0  0  0  0  0  0
   24.5167   -1.0000    0.0000 O   0  0  0  0  0  0  0  0  0  0  0  0
   26.2487   -1.0000    0.0000 O   0  0  0  0  0  0  0  0  0  0  0  0
   18.4545   -0.5000    0.0000 C   0  0  2  0  0  0  0  0  0  0  0  0
   16.7224   -0.5000    0.0000 C   0  0  1  0  0  0  0  0  0  0  0  0
   17.5885   -1.0000    0.0000 C   0  0  0  0  0  0  0  0  0  0  0  0
   19.3205   -1.0000    0.0000 C   0  0  0  0  0  0  0  0  0  0  0  0
   15.8564   -1.0000    0.0000 C   0  0  0  0  0  0  0  0  0  0  0  0
   20.1865   -0.5000    0.0000 C   0  0  2  0  0  0  0  0  0  0  0  0
   14.9904   -0.5000    0.0000 C   0  0  2  0  0  0  0  0  0  0  0  0
   21.0526   -1.0000    0.0000 C   0  0  0  0  0  0  0  0  0  0  0  0
   14.1244   -1.0000    0.0000 C   0  0  0  0  0  0  0  0  0  0  0  0
   21.9186   -0.5000    0.0000 C   0  0  2  0  0  0  0  0  0  0  0  0
   13.2583   -0.5000    0.0000 C   0  0  0  0  0  0  0  0  0  0  0  0
   12.3923   -1.0000    0.0000 C   0  0  0  0  0  0  0  0  0  0  0  0
   22.7846   -1.0000    0.0000 C   0  0  0  0  0  0  0  0  0  0  0  0
   11.5263   -0.5000    0.0000 C   0  0  0  0  0  0  0  0  0  0  0  0
   10.6603   -1.0000    0.0000 C   0  0  0  0  0  0  0  0  0  0  0  0
   23.6506   -0.5000    0.0000 C   0  0  1  0  0  0  0  0  0  0  0  0
    9.7942   -0.5000    0.0000 C   0  0  0  0  0  0  0  0  0  0  0  0
    8.9282   -1.0000    0.0000 C   0  0  0  0  0  0  0  0  0  0  0  0
    8.0622   -0.5000    0.0000 C   0  0  0  0  0  0  0  0  0  0  0  0
    7.1962   -1.0000    0.0000 C   0  0  0  0  0  0  0  0  0  0  0  0
   23.6506    0.5000    0.0000 C   0  0  0  0  0  0  0  0  0  0  0  0
    6.3301   -0.5000    0.0000 C   0  0  0  0  0  0  0  0  0  0  0  0
    5.4641   -1.0000    0.0000 C   0  0  0  0  0  0  0  0  0  0  0  0
    4.5981   -0.5000    0.0000 C   0  0  0  0  0  0  0  0  0  0  0  0
   24.5167    1.0000    0.0000 C   0  0  0  0  0  0  0  0  0  0  0  0
    3.7320   -1.0000    0.0000 C   0  0  0  0  0  0  0  0  0  0  0  0
   25.3827   -0.5000    0.0000 C   0  0  0  0  0  0  0  0  0  0  0  0
   25.3827    0.5000    0.0000 C   0  0  0  0  0  0  0  0  0  0  0  0
    2.8660   -0.5000    0.0000 C   0  0  0  0  0  0  0  0  0  0  0  0
    2.0000   -1.0000    0.0000 C   0  0  0  0  0  0  0  0  0  0  0  0
   18.9914   -0.1900    0.0000 H   0  0  0  0  0  0  0  0  0  0  0  0
   16.1855   -0.1900    0.0000 H   0  0  0  0  0  0  0  0  0  0  0  0
   17.1899   -1.4750    0.0000 H   0  0  0  0  0  0  0  0  0  0  0  0
   17.9870   -1.4750    0.0000 H   0  0  0  0  0  0  0  0  0  0  0  0
   18.9220   -1.4750    0.0000 H   0  0  0  0  0  0  0  0  0  0  0  0
   19.7190   -1.4750    0.0000 H   0  0  0  0  0  0  0  0  0  0  0  0
   15.4579   -1.4750    0.0000 H   0  0  0  0  0  0  0  0  0  0  0  0
   16.2549   -1.4750    0.0000 H   0  0  0  0  0  0  0  0  0  0  0  0
   19.6496   -0.1900    0.0000 H   0  0  0  0  0  0  0  0  0  0  0  0
   15.5273   -0.1900    0.0000 H   0  0  0  0  0  0  0  0  0  0  0  0
   20.6540   -1.4750    0.0000 H   0  0  0  0  0  0  0  0  0  0  0  0
   21.4511   -1.4750    0.0000 H   0  0  0  0  0  0  0  0  0  0  0  0
   13.7258   -1.4750    0.0000 H   0  0  0  0  0  0  0  0  0  0  0  0
   14.5229   -1.4750    0.0000 H   0  0  0  0  0  0  0  0  0  0  0  0
   22.4555   -0.1900    0.0000 H   0  0  0  0  0  0  0  0  0  0  0  0
   13.6569   -0.0251    0.0000 H   0  0  0  0  0  0  0  0  0  0  0  0
   12.8598   -0.0251    0.0000 H   0  0  0  0  0  0  0  0  0  0  0  0
   11.9938   -1.4750    0.0000 H   0  0  0  0  0  0  0  0  0  0  0  0
   12.7908   -1.4750    0.0000 H   0  0  0  0  0  0  0  0  0  0  0  0
   22.3861   -1.4750    0.0000 H   0  0  0  0  0  0  0  0  0  0  0  0
   23.1831   -1.4750    0.0000 H   0  0  0  0  0  0  0  0  0  0  0  0
   11.9248   -0.0251    0.0000 H   0  0  0  0  0  0  0  0  0  0  0  0
   11.1278   -0.0251    0.0000 H   0  0  0  0  0  0  0  0  0  0  0  0
   10.2617   -1.4750    0.0000 H   0  0  0  0  0  0  0  0  0  0  0  0
   11.0588   -1.4750    0.0000 H   0  0  0  0  0  0  0  0  0  0  0  0
   23.6506   -1.1200    0.0000 H   0  0  0  0  0  0  0  0  0  0  0  0
   10.1928   -0.0251    0.0000 H   0  0  0  0  0  0  0  0  0  0  0  0
    9.3957   -0.0251    0.0000 H   0  0  0  0  0  0  0  0  0  0  0  0
    8.5297   -1.4750    0.0000 H   0  0  0  0  0  0  0  0  0  0  0  0
    9.3267   -1.4750    0.0000 H   0  0  0  0  0  0  0  0  0  0  0  0
    8.4607   -0.0251    0.0000 H   0  0  0  0  0  0  0  0  0  0  0  0
    7.6636   -0.0251    0.0000 H   0  0  0  0  0  0  0  0  0  0  0  0
    6.7976   -1.4750    0.0000 H   0  0  0  0  0  0  0  0  0  0  0  0
    7.5947   -1.4750    0.0000 H   0  0  0  0  0  0  0  0  0  0  0  0
   23.4386    1.0826    0.0000 H   0  0  0  0  0  0  0  0  0  0  0  0
   23.0401    0.3923    0.0000 H   0  0  0  0  0  0  0  0  0  0  0  0
    6.7287   -0.0251    0.0000 H   0  0  0  0  0  0  0  0  0  0  0  0
    5.9316   -0.0251    0.0000 H   0  0  0  0  0  0  0  0  0  0  0  0
   17.9175    0.8100    0.0000 H   0  0  0  0  0  0  0  0  0  0  0  0
   16.1855    0.8100    0.0000 H   0  0  0  0  0  0  0  0  0  0  0  0
   19.6496    0.8100    0.0000 H   0  0  0  0  0  0  0  0  0  0  0  0
   14.4534    0.8100    0.0000 H   0  0  0  0  0  0  0  0  0  0  0  0
    5.0656   -1.4750    0.0000 H   0  0  0  0  0  0  0  0  0  0  0  0
    5.8626   -1.4750    0.0000 H   0  0  0  0  0  0  0  0  0  0  0  0
   21.3816    0.8100    0.0000 H   0  0  0  0  0  0  0  0  0  0  0  0
    4.9966   -0.0251    0.0000 H   0  0  0  0  0  0  0  0  0  0  0  0
    4.1996   -0.0251    0.0000 H   0  0  0  0  0  0  0  0  0  0  0  0
   24.5167    1.6200    0.0000 H   0  0  0  0  0  0  0  0  0  0  0  0
    3.3335   -1.4750    0.0000 H   0  0  0  0  0  0  0  0  0  0  0  0
    4.1306   -1.4750    0.0000 H   0  0  0  0  0  0  0  0  0  0  0  0
   25.9196    0.8100    0.0000 H   0  0  0  0  0  0  0  0  0  0  0  0
    3.2646   -0.0251    0.0000 H   0  0  0  0  0  0  0  0  0  0  0  0
    2.4675   -0.0251    0.0000 H   0  0  0  0  0  0  0  0  0  0  0  0
    1.6900   -0.4631    0.0000 H   0  0  0  0  0  0  0  0  0  0  0  0
    1.4631   -1.3100    0.0000 H   0  0  0  0  0  0  0  0  0  0  0  0
    2.3100   -1.5369    0.0000 H   0  0  0  0  0  0  0  0  0  0  0  0
  8  1  1  1  0  0  0
  1 76  1  0  0  0  0
  9  2  1  1  0  0  0
  2 77  1  0  0  0  0
 13  3  1  1  0  0  0
  3 78  1  0  0  0  0
 14  4  1  6  0  0  0
  4 79  1  0  0  0  0
 17  5  1  1  0  0  0
  5 82  1  0  0  0  0
  6 23  1  0  0  0  0
  6 34  1  0  0  0  0
  7 34  2  0  0  0  0
  8 10  1  0  0  0  0
  8 11  1  0  0  0  0
  8 38  1  0  0  0  0
  9 10  1  0  0  0  0
  9 12  1  0  0  0  0
  9 39  1  0  0  0  0
 10 40  1  0  0  0  0
 10 41  1  0  0  0  0
 11 13  1  0  0  0  0
 11 42  1  0  0  0  0
 11 43  1  0  0  0  0
 12 14  1  0  0  0  0
 12 44  1  0  0  0  0
 12 45  1  0  0  0  0
 13 15  1  0  0  0  0
 13 46  1  0  0  0  0
 14 16  1  0  0  0  0
 14 47  1  0  0  0  0
 15 17  1  0  0  0  0
 15 48  1  0  0  0  0
 15 49  1  0  0  0  0
 16 18  1  0  0  0  0
 16 50  1  0  0  0  0
 16 51  1  0  0  0  0
 17 20  1  0  0  0  0
 17 52  1  0  0  0  0
 18 19  1  0  0  0  0
 18 53  1  0  0  0  0
 18 54  1  0  0  0  0
 19 21  1  0  0  0  0
 19 55  1  0  0  0  0
 19 56  1  0  0  0  0
 23 20  1  1  0  0  0
 20 57  1  0  0  0  0
 20 58  1  0  0  0  0
 21 22  1  0  0  0  0
 21 59  1  0  0  0  0
 21 60  1  0  0  0  0
 22 24  1  0  0  0  0
 22 61  1  0  0  0  0
 22 62  1  0  0  0  0
 23 28  1  0  0  0  0
 23 63  1  0  0  0  0
 24 25  1  0  0  0  0
 24 64  1  0  0  0  0
 24 65  1  0  0  0  0
 25 26  1  0  0  0  0
 25 66  1  0  0  0  0
 25 67  1  0  0  0  0
 26 27  1  0  0  0  0
 26 68  1  0  0  0  0
 26 69  1  0  0  0  0
 27 29  1  0  0  0  0
 27 70  1  0  0  0  0
 27 71  1  0  0  0  0
 28 32  1  0  0  0  0
 28 72  1  0  0  0  0
 28 73  1  0  0  0  0
 29 30  1  0  0  0  0
 29 74  1  0  0  0  0
 29 75  1  0  0  0  0
 30 31  1  0  0  0  0
 30 80  1  0  0  0  0
 30 81  1  0  0  0  0
 31 33  1  0  0  0  0
 31 83  1  0  0  0  0
 31 84  1  0  0  0  0
 32 35  2  0  0  0  0
 32 85  1  0  0  0  0
 33 36  1  0  0  0  0
 33 86  1  0  0  0  0
 33 87  1  0  0  0  0
 34 35  1  0  0  0  0
 35 88  1  0  0  0  0
 36 37  1  0  0  0  0
 36 89  1  0  0  0  0
 36 90  1  0  0  0  0
 37 91  1  0  0  0  0
 37 92  1  0  0  0  0
 37 93  1  0  0  0  0
M  END
> <PUBCHEM_COMPOUND_CID>
71761758

> <PUBCHEM_COMPOUND_CANONICALIZED>
1

> <PUBCHEM_CACTVS_COMPLEXITY>
582

> <PUBCHEM_CACTVS_HBOND_ACCEPTOR>
7

> <PUBCHEM_CACTVS_HBOND_DONOR>
5

> <PUBCHEM_CACTVS_ROTATABLE_BOND>
24

> <PUBCHEM_CACTVS_SUBSKEYS>
AAADcfB4OAAAAAAAAAAAAAAAAAAAAAAAAAAgAAAAAAAAAAAAAAAAGgAACAAACBSggAICCAAABgCIACDSCAAAAAAgAAAICAAAAEgAFAIAIQACUAAFwAAIIYOA4KwAAAAAAAAAAAAAAAAAAAAAAAAAAAAAAA==

> <PUBCHEM_IUPAC_OPENEYE_NAME>
(2R)-2-[(2R,4R,6R,8R,10S)-2,4,6,8,10-pentahydroxypentacosyl]-2,3-dihydropyran-6-one

> <PUBCHEM_IUPAC_CAS_NAME>
(2R)-2-[(2R,4R,6R,8R,10S)-2,4,6,8,10-pentahydroxypentacosyl]-2,3-dihydropyran-6-one

> <PUBCHEM_IUPAC_NAME_MARKUP>
(2<I>R</I>)-2-[(2<I>R</I>,4<I>R</I>,6<I>R</I>,8<I>R</I>,10<I>S</I>)-2,4,6,8,10-pentahydroxypentacosyl]-2,3-dihydropyran-6-one

> <PUBCHEM_IUPAC_NAME>
(2R)-2-[(2R,4R,6R,8R,10S)-2,4,6,8,10-pentahydroxypentacosyl]-2,3-dihydropyran-6-one

> <PUBCHEM_IUPAC_SYSTEMATIC_NAME>
(2R)-2-[(2R,4R,6R,8R,10S)-2,4,6,8,10-pentakis(oxidanyl)pentacosyl]-2,3-dihydropyran-6-one

> <PUBCHEM_IUPAC_TRADITIONAL_NAME>
(2R)-2-[(2R,4R,6R,8R,10S)-2,4,6,8,10-pentahydroxypentacosyl]-2,3-dihydropyran-6-one

> <PUBCHEM_IUPAC_INCHI>
InChI=1S/C30H56O7/c1-2-3-4-5-6-7-8-9-10-11-12-13-14-16-24(31)19-25(32)20-26(33)21-27(34)22-28(35)23-29-17-15-18-30(36)37-29/h15,18,24-29,31-35H,2-14,16-17,19-23H2,1H3/t24-,25+,26+,27+,28+,29+/m0/s1

> <PUBCHEM_IUPAC_INCHIKEY>
GHNAMLOEGLSFMB-ZHMMVFJOSA-N

> <PUBCHEM_XLOGP3_AA>
7.2

> <PUBCHEM_EXACT_MASS>
528.40260412

> <PUBCHEM_MOLECULAR_FORMULA>
C30H56O7

> <PUBCHEM_MOLECULAR_WEIGHT>
528.8

> <PUBCHEM_OPENEYE_CAN_SMILES>
CCCCCCCCCCCCCCCC(CC(CC(CC(CC(CC1CC=CC(=O)O1)O)O)O)O)O

> <PUBCHEM_OPENEYE_ISO_SMILES>
CCCCCCCCCCCCCCC[C@@H](C[C@H](C[C@H](C[C@H](C[C@H](C[C@H]1CC=CC(=O)O1)O)O)O)O)O

> <PUBCHEM_CACTVS_TPSA>
127

> <PUBCHEM_MONOISOTOPIC_WEIGHT>
528.40260412

> <PUBCHEM_TOTAL_CHARGE>
0

> <PUBCHEM_HEAVY_ATOM_COUNT>
37

> <PUBCHEM_ATOM_DEF_STEREO_COUNT>
6

> <PUBCHEM_ATOM_UDEF_STEREO_COUNT>
0

> <PUBCHEM_BOND_DEF_STEREO_COUNT>
0

> <PUBCHEM_BOND_UDEF_STEREO_COUNT>
0

> <PUBCHEM_ISOTOPIC_ATOM_COUNT>
0

> <PUBCHEM_COMPONENT_COUNT>
1

> <PUBCHEM_CACTVS_TAUTO_COUNT>
-1

> <PUBCHEM_COORDINATE_TYPE>
1
5
255

> <PUBCHEM_BONDANNOTATIONS>
8  1  5
9  2  5
23  20  5
13  3  5
14  4  6
17  5  5

$$$$
